// GENCLS: BUS 'GENCLS' ID H D /
845 'GENCLS' 1  5.0  0.0 /
859 'GENCLS' 1  5.0  0.0 /
870 'GENCLS' 1  5.0  0.0 /
873 'GENCLS' 1  5.0  0.0 /
874 'GENCLS' 1  5.0  0.0 /
885 'GENCLS' 1  5.0  0.0 /
899 'GENCLS' 1  5.0  0.0 /
900 'GENCLS' 1  5.0  0.0 /
909 'GENCLS' 1  5.0  0.0 /
919 'GENCLS' 1  5.0  0.0 /
930 'GENCLS' 1  5.0  0.0 /
935 'GENCLS' 1  5.0  0.0 /
939 'GENCLS' 1  5.0  0.0 /
944 'GENCLS' 1  5.0  0.0 /
953 'GENCLS' 1  5.0  0.0 /
1013 'GENCLS' 1  5.0  0.0 /
1081 'GENCLS' 1  5.0  0.0 /
1082 'GENCLS' 1  5.0  0.0 /
1109 'GENCLS' 1  5.0  0.0 /
1110 'GENCLS' 1  5.0  0.0 /
1111 'GENCLS' 1  5.0  0.0 /
1118 'GENCLS' 1  5.0  0.0 /
1131 'GENCLS' 1  5.0  0.0 /
1133 'GENCLS' 1  5.0  0.0 /
1172 'GENCLS' 1  5.0  0.0 /
1177 'GENCLS' 1  5.0  0.0 /
1178 'GENCLS' 1  5.0  0.0 /
1179 'GENCLS' 1  5.0  0.0 /
1212 'GENCLS' 1  5.0  0.0 /
1751 'GENCLS' 1  5.0  0.0 /
1752 'GENCLS' 1  5.0  0.0 /
1774 'GENCLS' 1  5.0  0.0 /
1823 'GENCLS' 1  5.0  0.0 /
1829 'GENCLS' 1  5.0  0.0 /
1863 'GENCLS' 1  5.0  0.0 /
1891 'GENCLS' 1  5.0  0.0 /
1892 'GENCLS' 1  5.0  0.0 /
1898 'GENCLS' 1  5.0  0.0 /
1900 'GENCLS' 1  5.0  0.0 /
1910 'GENCLS' 1  5.0  0.0 /
1911 'GENCLS' 1  5.0  0.0 /
1927 'GENCLS' 1  5.0  0.0 /
2439 'GENCLS' 1  5.0  0.0 /
2443 'GENCLS' 1  5.0  0.0 /
2449 'GENCLS' 1  5.0  0.0 /
2476 'GENCLS' 1  5.0  0.0 /
2477 'GENCLS' 1  5.0  0.0 /
2485 'GENCLS' 1  5.0  0.0 /
2519 'GENCLS' 1  5.0  0.0 /
2525 'GENCLS' 1  5.0  0.0 /
2532 'GENCLS' 1  5.0  0.0 /
2536 'GENCLS' 1  5.0  0.0 /
2543 'GENCLS' 1  5.0  0.0 /
2552 'GENCLS' 1  5.0  0.0 /
2566 'GENCLS' 1  5.0  0.0 /
2577 'GENCLS' 1  5.0  0.0 /
2593 'GENCLS' 1  5.0  0.0 /
2594 'GENCLS' 1  5.0  0.0 /
2611 'GENCLS' 1  5.0  0.0 /
2612 'GENCLS' 1  5.0  0.0 /
2634 'GENCLS' 1  5.0  0.0 /
2664 'GENCLS' 1  5.0  0.0 /
2669 'GENCLS' 1  5.0  0.0 /
3943 'GENCLS' 1  5.0  0.0 /
3974 'GENCLS' 1  5.0  0.0 /
3976 'GENCLS' 1  5.0  0.0 /
3977 'GENCLS' 1  5.0  0.0 /
4005 'GENCLS' 1  5.0  0.0 /
4020 'GENCLS' 1  5.0  0.0 /
4022 'GENCLS' 1  5.0  0.0 /
4067 'GENCLS' 1  5.0  0.0 /
4076 'GENCLS' 1  5.0  0.0 /
4079 'GENCLS' 1  5.0  0.0 /
4083 'GENCLS' 1  5.0  0.0 /
4106 'GENCLS' 1  5.0  0.0 /
4138 'GENCLS' 1  5.0  0.0 /
4147 'GENCLS' 1  5.0  0.0 /
4164 'GENCLS' 1  5.0  0.0 /
4170 'GENCLS' 1  5.0  0.0 /
4197 'GENCLS' 1  5.0  0.0 /
4203 'GENCLS' 1  5.0  0.0 /
4215 'GENCLS' 1  5.0  0.0 /
4220 'GENCLS' 1  5.0  0.0 /
4233 'GENCLS' 1  5.0  0.0 /
4240 'GENCLS' 1  5.0  0.0 /
4267 'GENCLS' 1  5.0  0.0 /
4280 'GENCLS' 1  5.0  0.0 /
4282 'GENCLS' 1  5.0  0.0 /
4284 'GENCLS' 1  5.0  0.0 /
4294 'GENCLS' 1  5.0  0.0 /
4327 'GENCLS' 1  5.0  0.0 /
4328 'GENCLS' 1  5.0  0.0 /
4360 'GENCLS' 1  5.0  0.0 /
4395 'GENCLS' 1  5.0  0.0 /
4415 'GENCLS' 1  5.0  0.0 /
4422 'GENCLS' 1  5.0  0.0 /
4427 'GENCLS' 1  5.0  0.0 /
4450 'GENCLS' 1  5.0  0.0 /
4461 'GENCLS' 1  5.0  0.0 /
4469 'GENCLS' 1  5.0  0.0 /
4483 'GENCLS' 1  5.0  0.0 /
4674 'GENCLS' 1  5.0  0.0 /
4695 'GENCLS' 1  5.0  0.0 /
4701 'GENCLS' 1  5.0  0.0 /
4717 'GENCLS' 1  5.0  0.0 /
5402 'GENCLS' 1  5.0  0.0 /
5421 'GENCLS' 1  5.0  0.0 /
5430 'GENCLS' 1  5.0  0.0 /
5450 'GENCLS' 1  5.0  0.0 /
5452 'GENCLS' 1  5.0  0.0 /
5455 'GENCLS' 1  5.0  0.0 /
5464 'GENCLS' 1  5.0  0.0 /
5474 'GENCLS' 1  5.0  0.0 /
5498 'GENCLS' 1  5.0  0.0 /
5510 'GENCLS' 1  5.0  0.0 /
5512 'GENCLS' 1  5.0  0.0 /
5531 'GENCLS' 1  5.0  0.0 /
5568 'GENCLS' 1  5.0  0.0 /
5569 'GENCLS' 1  5.0  0.0 /
5576 'GENCLS' 1  5.0  0.0 /
5577 'GENCLS' 1  5.0  0.0 /
5616 'GENCLS' 1  5.0  0.0 /
5621 'GENCLS' 1  5.0  0.0 /
5629 'GENCLS' 1  5.0  0.0 /
5630 'GENCLS' 1  5.0  0.0 /
5644 'GENCLS' 1  5.0  0.0 /
5645 'GENCLS' 1  5.0  0.0 /
5653 'GENCLS' 1  5.0  0.0 /
5669 'GENCLS' 1  5.0  0.0 /
6926 'GENCLS' 1  5.0  0.0 /
6939 'GENCLS' 1  5.0  0.0 /
6949 'GENCLS' 1  5.0  0.0 /
6958 'GENCLS' 1  5.0  0.0 /
6980 'GENCLS' 1  5.0  0.0 /
6987 'GENCLS' 1  5.0  0.0 /
6990 'GENCLS' 1  5.0  0.0 /
6997 'GENCLS' 1  5.0  0.0 /
7008 'GENCLS' 1  5.0  0.0 /
7020 'GENCLS' 1  5.0  0.0 /
7033 'GENCLS' 1  5.0  0.0 /
7034 'GENCLS' 1  5.0  0.0 /
7046 'GENCLS' 1  5.0  0.0 /
7049 'GENCLS' 1  5.0  0.0 /
7071 'GENCLS' 1  5.0  0.0 /
7074 'GENCLS' 1  5.0  0.0 /
7093 'GENCLS' 1  5.0  0.0 /
7100 'GENCLS' 1  5.0  0.0 /
7104 'GENCLS' 1  5.0  0.0 /
7107 'GENCLS' 1  5.0  0.0 /
7115 'GENCLS' 1  5.0  0.0 /
7117 'GENCLS' 1  5.0  0.0 /
7124 'GENCLS' 1  5.0  0.0 /
7135 'GENCLS' 1  5.0  0.0 /
7144 'GENCLS' 1  5.0  0.0 /
7146 'GENCLS' 1  5.0  0.0 /
7180 'GENCLS' 1  5.0  0.0 /
7190 'GENCLS' 1  5.0  0.0 /
7193 'GENCLS' 1  5.0  0.0 /
7205 'GENCLS' 1  5.0  0.0 /
7213 'GENCLS' 1  5.0  0.0 /
7235 'GENCLS' 1  5.0  0.0 /
7277 'GENCLS' 1  5.0  0.0 /
7282 'GENCLS' 1  5.0  0.0 /
7284 'GENCLS' 1  5.0  0.0 /
7292 'GENCLS' 1  5.0  0.0 /
7314 'GENCLS' 1  5.0  0.0 /
7317 'GENCLS' 1  5.0  0.0 /
7323 'GENCLS' 1  5.0  0.0 /
9354 'GENCLS' 1  5.0  0.0 /
9358 'GENCLS' 1  5.0  0.0 /
9369 'GENCLS' 1  5.0  0.0 /
9370 'GENCLS' 1  5.0  0.0 /
9375 'GENCLS' 1  5.0  0.0 /
9376 'GENCLS' 1  5.0  0.0 /
9378 'GENCLS' 1  5.0  0.0 /
9379 'GENCLS' 1  5.0  0.0 /
9394 'GENCLS' 1  5.0  0.0 /
9415 'GENCLS' 1  5.0  0.0 /
9424 'GENCLS' 1  5.0  0.0 /
9436 'GENCLS' 1  5.0  0.0 /
9437 'GENCLS' 1  5.0  0.0 /
9440 'GENCLS' 1  5.0  0.0 /
9442 'GENCLS' 1  5.0  0.0 /
9465 'GENCLS' 1  5.0  0.0 /
9469 'GENCLS' 1  5.0  0.0 /
9483 'GENCLS' 1  5.0  0.0 /
9495 'GENCLS' 1  5.0  0.0 /
9500 'GENCLS' 1  5.0  0.0 /
9501 'GENCLS' 1  5.0  0.0 /
9506 'GENCLS' 1  5.0  0.0 /
9509 'GENCLS' 1  5.0  0.0 /
9516 'GENCLS' 1  5.0  0.0 /
9523 'GENCLS' 1  5.0  0.0 /
9528 'GENCLS' 1  5.0  0.0 /
9542 'GENCLS' 1  5.0  0.0 /
9560 'GENCLS' 1  5.0  0.0 /
9582 'GENCLS' 1  5.0  0.0 /
9593 'GENCLS' 1  5.0  0.0 /
9603 'GENCLS' 1  5.0  0.0 /
9612 'GENCLS' 1  5.0  0.0 /
9619 'GENCLS' 1  5.0  0.0 /
9630 'GENCLS' 1  5.0  0.0 /
9637 'GENCLS' 1  5.0  0.0 /
9662 'GENCLS' 1  5.0  0.0 /
9663 'GENCLS' 1  5.0  0.0 /
9665 'GENCLS' 1  5.0  0.0 /
9674 'GENCLS' 1  5.0  0.0 /
9685 'GENCLS' 1  5.0  0.0 /
9689 'GENCLS' 1  5.0  0.0 /
9710 'GENCLS' 1  5.0  0.0 /
9717 'GENCLS' 1  5.0  0.0 /
9758 'GENCLS' 1  5.0  0.0 /
9762 'GENCLS' 1  5.0  0.0 /
9777 'GENCLS' 1  5.0  0.0 /
9810 'GENCLS' 1  5.0  0.0 /
9825 'GENCLS' 1  5.0  0.0 /
9830 'GENCLS' 1  5.0  0.0 /
9852 'GENCLS' 1  5.0  0.0 /
9873 'GENCLS' 1  5.0  0.0 /
9883 'GENCLS' 1  5.0  0.0 /
9897 'GENCLS' 1  5.0  0.0 /
9900 'GENCLS' 1  5.0  0.0 /
9915 'GENCLS' 1  5.0  0.0 /
9931 'GENCLS' 1  5.0  0.0 /
9937 'GENCLS' 1  5.0  0.0 /
9947 'GENCLS' 1  5.0  0.0 /
9970 'GENCLS' 1  5.0  0.0 /
9980 'GENCLS' 1  5.0  0.0 /
9986 'GENCLS' 1  5.0  0.0 /
9993 'GENCLS' 1  5.0  0.0 /
10001 'GENCLS' 1  5.0  0.0 /
10014 'GENCLS' 1  5.0  0.0 /
10020 'GENCLS' 1  5.0  0.0 /
10074 'GENCLS' 1  5.0  0.0 /
10077 'GENCLS' 1  5.0  0.0 /
10089 'GENCLS' 1  5.0  0.0 /
10103 'GENCLS' 1  5.0  0.0 /
10104 'GENCLS' 1  5.0  0.0 /
10121 'GENCLS' 1  5.0  0.0 /
10124 'GENCLS' 1  5.0  0.0 /
10134 'GENCLS' 1  5.0  0.0 /
10146 'GENCLS' 1  5.0  0.0 /
11430 'GENCLS' 1  5.0  0.0 /
11447 'GENCLS' 1  5.0  0.0 /
11469 'GENCLS' 1  5.0  0.0 /
11478 'GENCLS' 1  5.0  0.0 /
11493 'GENCLS' 1  5.0  0.0 /
11494 'GENCLS' 1  5.0  0.0 /
11508 'GENCLS' 1  5.0  0.0 /
11563 'GENCLS' 1  5.0  0.0 /
11576 'GENCLS' 1  5.0  0.0 /
11602 'GENCLS' 1  5.0  0.0 /
11627 'GENCLS' 1  5.0  0.0 /
11637 'GENCLS' 1  5.0  0.0 /
11647 'GENCLS' 1  5.0  0.0 /
11659 'GENCLS' 1  5.0  0.0 /
11664 'GENCLS' 1  5.0  0.0 /
11670 'GENCLS' 1  5.0  0.0 /
11703 'GENCLS' 1  5.0  0.0 /
11717 'GENCLS' 1  5.0  0.0 /
11722 'GENCLS' 1  5.0  0.0 /
11726 'GENCLS' 1  5.0  0.0 /
11742 'GENCLS' 1  5.0  0.0 /
11747 'GENCLS' 1  5.0  0.0 /
11758 'GENCLS' 1  5.0  0.0 /
11759 'GENCLS' 1  5.0  0.0 /
11765 'GENCLS' 1  5.0  0.0 /
11769 'GENCLS' 1  5.0  0.0 /
11780 'GENCLS' 1  5.0  0.0 /
11788 'GENCLS' 1  5.0  0.0 /
11800 'GENCLS' 1  5.0  0.0 /
11837 'GENCLS' 1  5.0  0.0 /
11853 'GENCLS' 1  5.0  0.0 /
11856 'GENCLS' 1  5.0  0.0 /
11864 'GENCLS' 1  5.0  0.0 /
11876 'GENCLS' 1  5.0  0.0 /
11883 'GENCLS' 1  5.0  0.0 /
11903 'GENCLS' 1  5.0  0.0 /
11904 'GENCLS' 1  5.0  0.0 /
11909 'GENCLS' 1  5.0  0.0 /
11912 'GENCLS' 1  5.0  0.0 /
11963 'GENCLS' 1  5.0  0.0 /
13683 'GENCLS' 1  5.0  0.0 /
13690 'GENCLS' 1  5.0  0.0 /
13726 'GENCLS' 1  5.0  0.0 /
13731 'GENCLS' 1  5.0  0.0 /
13732 'GENCLS' 1  5.0  0.0 /
13750 'GENCLS' 1  5.0  0.0 /
13751 'GENCLS' 1  5.0  0.0 /
13775 'GENCLS' 1  5.0  0.0 /
13785 'GENCLS' 1  5.0  0.0 /
13799 'GENCLS' 1  5.0  0.0 /
13812 'GENCLS' 1  5.0  0.0 /
13815 'GENCLS' 1  5.0  0.0 /
13818 'GENCLS' 1  5.0  0.0 /
13831 'GENCLS' 1  5.0  0.0 /
13840 'GENCLS' 1  5.0  0.0 /
13864 'GENCLS' 1  5.0  0.0 /
13880 'GENCLS' 1  5.0  0.0 /
13886 'GENCLS' 1  5.0  0.0 /
13888 'GENCLS' 1  5.0  0.0 /
13902 'GENCLS' 1  5.0  0.0 /
13907 'GENCLS' 1  5.0  0.0 /
13915 'GENCLS' 1  5.0  0.0 /
13926 'GENCLS' 1  5.0  0.0 /
13927 'GENCLS' 1  5.0  0.0 /
13931 'GENCLS' 1  5.0  0.0 /
13940 'GENCLS' 1  5.0  0.0 /
13942 'GENCLS' 1  5.0  0.0 /
13967 'GENCLS' 1  5.0  0.0 /
13988 'GENCLS' 1  5.0  0.0 /
13993 'GENCLS' 1  5.0  0.0 /
13999 'GENCLS' 1  5.0  0.0 /
14010 'GENCLS' 1  5.0  0.0 /
14011 'GENCLS' 1  5.0  0.0 /
14022 'GENCLS' 1  5.0  0.0 /
14034 'GENCLS' 1  5.0  0.0 /
14038 'GENCLS' 1  5.0  0.0 /
14057 'GENCLS' 1  5.0  0.0 /
14067 'GENCLS' 1  5.0  0.0 /
14078 'GENCLS' 1  5.0  0.0 /
14092 'GENCLS' 1  5.0  0.0 /
15822 'GENCLS' 1  5.0  0.0 /
15830 'GENCLS' 1  5.0  0.0 /
15832 'GENCLS' 1  5.0  0.0 /
15843 'GENCLS' 1  5.0  0.0 /
15862 'GENCLS' 1  5.0  0.0 /
15909 'GENCLS' 1  5.0  0.0 /
15936 'GENCLS' 1  5.0  0.0 /
15948 'GENCLS' 1  5.0  0.0 /
15956 'GENCLS' 1  5.0  0.0 /
15965 'GENCLS' 1  5.0  0.0 /
15977 'GENCLS' 1  5.0  0.0 /
15996 'GENCLS' 1  5.0  0.0 /
16002 'GENCLS' 1  5.0  0.0 /
16026 'GENCLS' 1  5.0  0.0 /
16032 'GENCLS' 1  5.0  0.0 /
16039 'GENCLS' 1  5.0  0.0 /
16054 'GENCLS' 1  5.0  0.0 /
16055 'GENCLS' 1  5.0  0.0 /
16065 'GENCLS' 1  5.0  0.0 /
16078 'GENCLS' 1  5.0  0.0 /
16087 'GENCLS' 1  5.0  0.0 /
16100 'GENCLS' 1  5.0  0.0 /
16252 'GENCLS' 1  5.0  0.0 /
16259 'GENCLS' 1  5.0  0.0 /
16280 'GENCLS' 1  5.0  0.0 /
16282 'GENCLS' 1  5.0  0.0 /
16285 'GENCLS' 1  5.0  0.0 /
16290 'GENCLS' 1  5.0  0.0 /
17297 'GENCLS' 1  5.0  0.0 /
17315 'GENCLS' 1  5.0  0.0 /
17331 'GENCLS' 1  5.0  0.0 /
17334 'GENCLS' 1  5.0  0.0 /
17370 'GENCLS' 1  5.0  0.0 /
17398 'GENCLS' 1  5.0  0.0 /
17408 'GENCLS' 1  5.0  0.0 /
17423 'GENCLS' 1  5.0  0.0 /
17474 'GENCLS' 1  5.0  0.0 /
17497 'GENCLS' 1  5.0  0.0 /
17498 'GENCLS' 1  5.0  0.0 /
18318 'GENCLS' 1  5.0  0.0 /
18324 'GENCLS' 1  5.0  0.0 /
18325 'GENCLS' 1  5.0  0.0 /
18331 'GENCLS' 1  5.0  0.0 /
18338 'GENCLS' 1  5.0  0.0 /
18342 'GENCLS' 1  5.0  0.0 /
18345 'GENCLS' 1  5.0  0.0 /
18364 'GENCLS' 1  5.0  0.0 /
18380 'GENCLS' 1  5.0  0.0 /
18386 'GENCLS' 1  5.0  0.0 /
18401 'GENCLS' 1  5.0  0.0 /
18402 'GENCLS' 1  5.0  0.0 /
18405 'GENCLS' 1  5.0  0.0 /
18418 'GENCLS' 1  5.0  0.0 /
18451 'GENCLS' 1  5.0  0.0 /
18452 'GENCLS' 1  5.0  0.0 /
18462 'GENCLS' 1  5.0  0.0 /
18469 'GENCLS' 1  5.0  0.0 /
18481 'GENCLS' 1  5.0  0.0 /
18498 'GENCLS' 1  5.0  0.0 /
19399 'GENCLS' 1  5.0  0.0 /
19400 'GENCLS' 1  5.0  0.0 /
19420 'GENCLS' 1  5.0  0.0 /
19463 'GENCLS' 1  5.0  0.0 /
19481 'GENCLS' 1  5.0  0.0 /
19484 'GENCLS' 1  5.0  0.0 /
19493 'GENCLS' 1  5.0  0.0 /
19503 'GENCLS' 1  5.0  0.0 /
19520 'GENCLS' 1  5.0  0.0 /
19530 'GENCLS' 1  5.0  0.0 /
19532 'GENCLS' 1  5.0  0.0 /
19539 'GENCLS' 1  5.0  0.0 /
19543 'GENCLS' 1  5.0  0.0 /
19555 'GENCLS' 1  5.0  0.0 /
19563 'GENCLS' 1  5.0  0.0 /
19569 'GENCLS' 1  5.0  0.0 /
19596 'GENCLS' 1  5.0  0.0 /
19600 'GENCLS' 1  5.0  0.0 /
19613 'GENCLS' 1  5.0  0.0 /
19628 'GENCLS' 1  5.0  0.0 /
19630 'GENCLS' 1  5.0  0.0 /
19653 'GENCLS' 1  5.0  0.0 /
21122 'GENCLS' 1  5.0  0.0 /
21138 'GENCLS' 1  5.0  0.0 /
21152 'GENCLS' 1  5.0  0.0 /
21195 'GENCLS' 1  5.0  0.0 /
21201 'GENCLS' 1  5.0  0.0 /
21210 'GENCLS' 1  5.0  0.0 /
21224 'GENCLS' 1  5.0  0.0 /
21232 'GENCLS' 1  5.0  0.0 /
21247 'GENCLS' 1  5.0  0.0 /
21257 'GENCLS' 1  5.0  0.0 /
21265 'GENCLS' 1  5.0  0.0 /
21288 'GENCLS' 1  5.0  0.0 /
21332 'GENCLS' 1  5.0  0.0 /
21338 'GENCLS' 1  5.0  0.0 /
21339 'GENCLS' 1  5.0  0.0 /
21362 'GENCLS' 1  5.0  0.0 /
21366 'GENCLS' 1  5.0  0.0 /
21370 'GENCLS' 1  5.0  0.0 /
21385 'GENCLS' 1  5.0  0.0 /
21403 'GENCLS' 1  5.0  0.0 /
21408 'GENCLS' 1  5.0  0.0 /
21418 'GENCLS' 1  5.0  0.0 /
21420 'GENCLS' 1  5.0  0.0 /
21426 'GENCLS' 1  5.0  0.0 /
21442 'GENCLS' 1  5.0  0.0 /
21445 'GENCLS' 1  5.0  0.0 /
21467 'GENCLS' 1  5.0  0.0 /
21482 'GENCLS' 1  5.0  0.0 /
21488 'GENCLS' 1  5.0  0.0 /
21494 'GENCLS' 1  5.0  0.0 /
21505 'GENCLS' 1  5.0  0.0 /
21508 'GENCLS' 1  5.0  0.0 /
21518 'GENCLS' 1  5.0  0.0 /
21527 'GENCLS' 1  5.0  0.0 /
21529 'GENCLS' 1  5.0  0.0 /
21537 'GENCLS' 1  5.0  0.0 /
21540 'GENCLS' 1  5.0  0.0 /
21541 'GENCLS' 1  5.0  0.0 /
21551 'GENCLS' 1  5.0  0.0 /
21570 'GENCLS' 1  5.0  0.0 /
21583 'GENCLS' 1  5.0  0.0 /
21587 'GENCLS' 1  5.0  0.0 /
21595 'GENCLS' 1  5.0  0.0 /
21602 'GENCLS' 1  5.0  0.0 /
21629 'GENCLS' 1  5.0  0.0 /
21638 'GENCLS' 1  5.0  0.0 /
21656 'GENCLS' 1  5.0  0.0 /
21687 'GENCLS' 1  5.0  0.0 /
21688 'GENCLS' 1  5.0  0.0 /
21699 'GENCLS' 1  5.0  0.0 /
21709 'GENCLS' 1  5.0  0.0 /
22119 'GENCLS' 1  5.0  0.0 /
22140 'GENCLS' 1  5.0  0.0 /
22152 'GENCLS' 1  5.0  0.0 /
22176 'GENCLS' 1  5.0  0.0 /
22196 'GENCLS' 1  5.0  0.0 /
22231 'GENCLS' 1  5.0  0.0 /
22234 'GENCLS' 1  5.0  0.0 /
22247 'GENCLS' 1  5.0  0.0 /
22254 'GENCLS' 1  5.0  0.0 /
22257 'GENCLS' 1  5.0  0.0 /
23319 'GENCLS' 1  5.0  0.0 /
23346 'GENCLS' 1  5.0  0.0 /
23360 'GENCLS' 1  5.0  0.0 /
23366 'GENCLS' 1  5.0  0.0 /
23382 'GENCLS' 1  5.0  0.0 /
23396 'GENCLS' 1  5.0  0.0 /
23445 'GENCLS' 1  5.0  0.0 /
23454 'GENCLS' 1  5.0  0.0 /
23455 'GENCLS' 1  5.0  0.0 /
23456 'GENCLS' 1  5.0  0.0 /
23470 'GENCLS' 1  5.0  0.0 /
23472 'GENCLS' 1  5.0  0.0 /
23486 'GENCLS' 1  5.0  0.0 /
23493 'GENCLS' 1  5.0  0.0 /
23505 'GENCLS' 1  5.0  0.0 /
23506 'GENCLS' 1  5.0  0.0 /
23517 'GENCLS' 1  5.0  0.0 /
23538 'GENCLS' 1  5.0  0.0 /
23543 'GENCLS' 1  5.0  0.0 /
23555 'GENCLS' 1  5.0  0.0 /
23563 'GENCLS' 1  5.0  0.0 /
23576 'GENCLS' 1  5.0  0.0 /
23577 'GENCLS' 1  5.0  0.0 /
23578 'GENCLS' 1  5.0  0.0 /
23613 'GENCLS' 1  5.0  0.0 /
23615 'GENCLS' 1  5.0  0.0 /
23623 'GENCLS' 1  5.0  0.0 /
23635 'GENCLS' 1  5.0  0.0 /
23651 'GENCLS' 1  5.0  0.0 /
23655 'GENCLS' 1  5.0  0.0 /
23659 'GENCLS' 1  5.0  0.0 /
23688 'GENCLS' 1  5.0  0.0 /
23703 'GENCLS' 1  5.0  0.0 /
23705 'GENCLS' 1  5.0  0.0 /
23710 'GENCLS' 1  5.0  0.0 /
23741 'GENCLS' 1  5.0  0.0 /
23771 'GENCLS' 1  5.0  0.0 /
24539 'GENCLS' 1  5.0  0.0 /
24551 'GENCLS' 1  5.0  0.0 /
24573 'GENCLS' 1  5.0  0.0 /
24587 'GENCLS' 1  5.0  0.0 /
24593 'GENCLS' 1  5.0  0.0 /
24612 'GENCLS' 1  5.0  0.0 /
24615 'GENCLS' 1  5.0  0.0 /
24618 'GENCLS' 1  5.0  0.0 /
24630 'GENCLS' 1  5.0  0.0 /
24649 'GENCLS' 1  5.0  0.0 /
24650 'GENCLS' 1  5.0  0.0 /
24667 'GENCLS' 1  5.0  0.0 /
24685 'GENCLS' 1  5.0  0.0 /
24686 'GENCLS' 1  5.0  0.0 /
24703 'GENCLS' 1  5.0  0.0 /
24711 'GENCLS' 1  5.0  0.0 /
24713 'GENCLS' 1  5.0  0.0 /
24730 'GENCLS' 1  5.0  0.0 /
24732 'GENCLS' 1  5.0  0.0 /
24733 'GENCLS' 1  5.0  0.0 /
24769 'GENCLS' 1  5.0  0.0 /
24792 'GENCLS' 1  5.0  0.0 /
24795 'GENCLS' 1  5.0  0.0 /
24800 'GENCLS' 1  5.0  0.0 /
24801 'GENCLS' 1  5.0  0.0 /
24816 'GENCLS' 1  5.0  0.0 /
25518 'GENCLS' 1  5.0  0.0 /
25543 'GENCLS' 1  5.0  0.0 /
25562 'GENCLS' 1  5.0  0.0 /
25573 'GENCLS' 1  5.0  0.0 /
25577 'GENCLS' 1  5.0  0.0 /
25589 'GENCLS' 1  5.0  0.0 /
25598 'GENCLS' 1  5.0  0.0 /
25638 'GENCLS' 1  5.0  0.0 /
25647 'GENCLS' 1  5.0  0.0 /
25720 'GENCLS' 1  5.0  0.0 /
25723 'GENCLS' 1  5.0  0.0 /
25732 'GENCLS' 1  5.0  0.0 /
25734 'GENCLS' 1  5.0  0.0 /
25735 'GENCLS' 1  5.0  0.0 /
25749 'GENCLS' 1  5.0  0.0 /
25771 'GENCLS' 1  5.0  0.0 /
25776 'GENCLS' 1  5.0  0.0 /
25783 'GENCLS' 1  5.0  0.0 /
25788 'GENCLS' 1  5.0  0.0 /
26044 'GENCLS' 1  5.0  0.0 /
26047 'GENCLS' 1  5.0  0.0 /
26051 'GENCLS' 1  5.0  0.0 /
26053 'GENCLS' 1  5.0  0.0 /
26063 'GENCLS' 1  5.0  0.0 /
26080 'GENCLS' 1  5.0  0.0 /
26089 'GENCLS' 1  5.0  0.0 /
26825 'GENCLS' 1  5.0  0.0 /
26826 'GENCLS' 1  5.0  0.0 /
26827 'GENCLS' 1  5.0  0.0 /
26834 'GENCLS' 1  5.0  0.0 /
26861 'GENCLS' 1  5.0  0.0 /
26876 'GENCLS' 1  5.0  0.0 /
26880 'GENCLS' 1  5.0  0.0 /
26881 'GENCLS' 1  5.0  0.0 /
26882 'GENCLS' 1  5.0  0.0 /
26885 'GENCLS' 1  5.0  0.0 /
26898 'GENCLS' 1  5.0  0.0 /
26905 'GENCLS' 1  5.0  0.0 /
26914 'GENCLS' 1  5.0  0.0 /
26916 'GENCLS' 1  5.0  0.0 /
26940 'GENCLS' 1  5.0  0.0 /
26948 'GENCLS' 1  5.0  0.0 /
26957 'GENCLS' 1  5.0  0.0 /
26958 'GENCLS' 1  5.0  0.0 /
26969 'GENCLS' 1  5.0  0.0 /
26970 'GENCLS' 1  5.0  0.0 /
26979 'GENCLS' 1  5.0  0.0 /
26983 'GENCLS' 1  5.0  0.0 /
26984 'GENCLS' 1  5.0  0.0 /
26996 'GENCLS' 1  5.0  0.0 /
27003 'GENCLS' 1  5.0  0.0 /
27030 'GENCLS' 1  5.0  0.0 /
27039 'GENCLS' 1  5.0  0.0 /
27043 'GENCLS' 1  5.0  0.0 /
28150 'GENCLS' 1  5.0  0.0 /
28152 'GENCLS' 1  5.0  0.0 /
28153 'GENCLS' 1  5.0  0.0 /
28162 'GENCLS' 1  5.0  0.0 /
28170 'GENCLS' 1  5.0  0.0 /
28174 'GENCLS' 1  5.0  0.0 /
28177 'GENCLS' 1  5.0  0.0 /
28178 'GENCLS' 1  5.0  0.0 /
28219 'GENCLS' 1  5.0  0.0 /
28233 'GENCLS' 1  5.0  0.0 /
28238 'GENCLS' 1  5.0  0.0 /
28264 'GENCLS' 1  5.0  0.0 /
28279 'GENCLS' 1  5.0  0.0 /
28286 'GENCLS' 1  5.0  0.0 /
28290 'GENCLS' 1  5.0  0.0 /
28291 'GENCLS' 1  5.0  0.0 /
28315 'GENCLS' 1  5.0  0.0 /
28344 'GENCLS' 1  5.0  0.0 /
28355 'GENCLS' 1  5.0  0.0 /
28373 'GENCLS' 1  5.0  0.0 /
28412 'GENCLS' 1  5.0  0.0 /
28413 'GENCLS' 1  5.0  0.0 /
28449 'GENCLS' 1  5.0  0.0 /
28452 'GENCLS' 1  5.0  0.0 /
28470 'GENCLS' 1  5.0  0.0 /
28471 'GENCLS' 1  5.0  0.0 /
28478 'GENCLS' 1  5.0  0.0 /
28479 'GENCLS' 1  5.0  0.0 /
28483 'GENCLS' 1  5.0  0.0 /
28502 'GENCLS' 1  5.0  0.0 /
28507 'GENCLS' 1  5.0  0.0 /
28530 'GENCLS' 1  5.0  0.0 /
28531 'GENCLS' 1  5.0  0.0 /
28536 'GENCLS' 1  5.0  0.0 /
29659 'GENCLS' 1  5.0  0.0 /
29667 'GENCLS' 1  5.0  0.0 /
29672 'GENCLS' 1  5.0  0.0 /
29681 'GENCLS' 1  5.0  0.0 /
29682 'GENCLS' 1  5.0  0.0 /
29690 'GENCLS' 1  5.0  0.0 /
29704 'GENCLS' 1  5.0  0.0 /
29720 'GENCLS' 1  5.0  0.0 /
29731 'GENCLS' 1  5.0  0.0 /
29737 'GENCLS' 1  5.0  0.0 /
29747 'GENCLS' 1  5.0  0.0 /
29774 'GENCLS' 1  5.0  0.0 /
29781 'GENCLS' 1  5.0  0.0 /
29784 'GENCLS' 1  5.0  0.0 /
29808 'GENCLS' 1  5.0  0.0 /
29811 'GENCLS' 1  5.0  0.0 /
29812 'GENCLS' 1  5.0  0.0 /
29818 'GENCLS' 1  5.0  0.0 /
29824 'GENCLS' 1  5.0  0.0 /
29830 'GENCLS' 1  5.0  0.0 /
29846 'GENCLS' 1  5.0  0.0 /
29863 'GENCLS' 1  5.0  0.0 /
29901 'GENCLS' 1  5.0  0.0 /
29919 'GENCLS' 1  5.0  0.0 /
29930 'GENCLS' 1  5.0  0.0 /
29931 'GENCLS' 1  5.0  0.0 /
29952 'GENCLS' 1  5.0  0.0 /
29958 'GENCLS' 1  5.0  0.0 /
29989 'GENCLS' 1  5.0  0.0 /
29990 'GENCLS' 1  5.0  0.0 /
30001 'GENCLS' 1  5.0  0.0 /
30011 'GENCLS' 1  5.0  0.0 /
30772 'GENCLS' 1  5.0  0.0 /
30787 'GENCLS' 1  5.0  0.0 /
30822 'GENCLS' 1  5.0  0.0 /
30826 'GENCLS' 1  5.0  0.0 /
30839 'GENCLS' 1  5.0  0.0 /
30852 'GENCLS' 1  5.0  0.0 /
30854 'GENCLS' 1  5.0  0.0 /
30857 'GENCLS' 1  5.0  0.0 /
30869 'GENCLS' 1  5.0  0.0 /
30874 'GENCLS' 1  5.0  0.0 /
30883 'GENCLS' 1  5.0  0.0 /
30884 'GENCLS' 1  5.0  0.0 /
30888 'GENCLS' 1  5.0  0.0 /
30894 'GENCLS' 1  5.0  0.0 /
30895 'GENCLS' 1  5.0  0.0 /
30896 'GENCLS' 1  5.0  0.0 /
30899 'GENCLS' 1  5.0  0.0 /
30904 'GENCLS' 1  5.0  0.0 /
30911 'GENCLS' 1  5.0  0.0 /
30952 'GENCLS' 1  5.0  0.0 /
30954 'GENCLS' 1  5.0  0.0 /
32196 'GENCLS' 1  5.0  0.0 /
32198 'GENCLS' 1  5.0  0.0 /
32205 'GENCLS' 1  5.0  0.0 /
32221 'GENCLS' 1  5.0  0.0 /
32225 'GENCLS' 1  5.0  0.0 /
32226 'GENCLS' 1  5.0  0.0 /
32230 'GENCLS' 1  5.0  0.0 /
32235 'GENCLS' 1  5.0  0.0 /
32236 'GENCLS' 1  5.0  0.0 /
32242 'GENCLS' 1  5.0  0.0 /
32280 'GENCLS' 1  5.0  0.0 /
32288 'GENCLS' 1  5.0  0.0 /
32301 'GENCLS' 1  5.0  0.0 /
32310 'GENCLS' 1  5.0  0.0 /
32320 'GENCLS' 1  5.0  0.0 /
32338 'GENCLS' 1  5.0  0.0 /
32340 'GENCLS' 1  5.0  0.0 /
32352 'GENCLS' 1  5.0  0.0 /
32353 'GENCLS' 1  5.0  0.0 /
32361 'GENCLS' 1  5.0  0.0 /
32364 'GENCLS' 1  5.0  0.0 /
32386 'GENCLS' 1  5.0  0.0 /
32387 'GENCLS' 1  5.0  0.0 /
32393 'GENCLS' 1  5.0  0.0 /
32396 'GENCLS' 1  5.0  0.0 /
32413 'GENCLS' 1  5.0  0.0 /
32435 'GENCLS' 1  5.0  0.0 /
32439 'GENCLS' 1  5.0  0.0 /
32464 'GENCLS' 1  5.0  0.0 /
32489 'GENCLS' 1  5.0  0.0 /
32493 'GENCLS' 1  5.0  0.0 /
32507 'GENCLS' 1  5.0  0.0 /
32518 'GENCLS' 1  5.0  0.0 /
33949 'GENCLS' 1  5.0  0.0 /
33952 'GENCLS' 1  5.0  0.0 /
33959 'GENCLS' 1  5.0  0.0 /
33967 'GENCLS' 1  5.0  0.0 /
33969 'GENCLS' 1  5.0  0.0 /
33976 'GENCLS' 1  5.0  0.0 /
33990 'GENCLS' 1  5.0  0.0 /
34005 'GENCLS' 1  5.0  0.0 /
34026 'GENCLS' 1  5.0  0.0 /
34028 'GENCLS' 1  5.0  0.0 /
34046 'GENCLS' 1  5.0  0.0 /
34060 'GENCLS' 1  5.0  0.0 /
34080 'GENCLS' 1  5.0  0.0 /
34087 'GENCLS' 1  5.0  0.0 /
34103 'GENCLS' 1  5.0  0.0 /
34114 'GENCLS' 1  5.0  0.0 /
34115 'GENCLS' 1  5.0  0.0 /
34133 'GENCLS' 1  5.0  0.0 /
34144 'GENCLS' 1  5.0  0.0 /
34147 'GENCLS' 1  5.0  0.0 /
34152 'GENCLS' 1  5.0  0.0 /
34162 'GENCLS' 1  5.0  0.0 /
35360 'GENCLS' 1  5.0  0.0 /
35375 'GENCLS' 1  5.0  0.0 /
35381 'GENCLS' 1  5.0  0.0 /
35383 'GENCLS' 1  5.0  0.0 /
35386 'GENCLS' 1  5.0  0.0 /
35391 'GENCLS' 1  5.0  0.0 /
35397 'GENCLS' 1  5.0  0.0 /
35404 'GENCLS' 1  5.0  0.0 /
35426 'GENCLS' 1  5.0  0.0 /
35445 'GENCLS' 1  5.0  0.0 /
35451 'GENCLS' 1  5.0  0.0 /
35453 'GENCLS' 1  5.0  0.0 /
35471 'GENCLS' 1  5.0  0.0 /
35488 'GENCLS' 1  5.0  0.0 /
35490 'GENCLS' 1  5.0  0.0 /
35494 'GENCLS' 1  5.0  0.0 /
35510 'GENCLS' 1  5.0  0.0 /
35511 'GENCLS' 1  5.0  0.0 /
35520 'GENCLS' 1  5.0  0.0 /
35532 'GENCLS' 1  5.0  0.0 /
35533 'GENCLS' 1  5.0  0.0 /
36837 'GENCLS' 1  5.0  0.0 /
36840 'GENCLS' 1  5.0  0.0 /
36848 'GENCLS' 1  5.0  0.0 /
36852 'GENCLS' 1  5.0  0.0 /
36853 'GENCLS' 1  5.0  0.0 /
36874 'GENCLS' 1  5.0  0.0 /
36881 'GENCLS' 1  5.0  0.0 /
36887 'GENCLS' 1  5.0  0.0 /
36893 'GENCLS' 1  5.0  0.0 /
36900 'GENCLS' 1  5.0  0.0 /
36901 'GENCLS' 1  5.0  0.0 /
36908 'GENCLS' 1  5.0  0.0 /
36923 'GENCLS' 1  5.0  0.0 /
36926 'GENCLS' 1  5.0  0.0 /
36928 'GENCLS' 1  5.0  0.0 /
36935 'GENCLS' 1  5.0  0.0 /
36940 'GENCLS' 1  5.0  0.0 /
36962 'GENCLS' 1  5.0  0.0 /
36968 'GENCLS' 1  5.0  0.0 /
37003 'GENCLS' 1  5.0  0.0 /
37026 'GENCLS' 1  5.0  0.0 /
37038 'GENCLS' 1  5.0  0.0 /
37056 'GENCLS' 1  5.0  0.0 /
37058 'GENCLS' 1  5.0  0.0 /
37059 'GENCLS' 1  5.0  0.0 /
37063 'GENCLS' 1  5.0  0.0 /
37067 'GENCLS' 1  5.0  0.0 /
37072 'GENCLS' 1  5.0  0.0 /
37075 'GENCLS' 1  5.0  0.0 /
37081 'GENCLS' 1  5.0  0.0 /
37095 'GENCLS' 1  5.0  0.0 /
37113 'GENCLS' 1  5.0  0.0 /
37129 'GENCLS' 1  5.0  0.0 /
37145 'GENCLS' 1  5.0  0.0 /
37151 'GENCLS' 1  5.0  0.0 /
37152 'GENCLS' 1  5.0  0.0 /
38153 'GENCLS' 1  5.0  0.0 /
38175 'GENCLS' 1  5.0  0.0 /
38184 'GENCLS' 1  5.0  0.0 /
38205 'GENCLS' 1  5.0  0.0 /
38221 'GENCLS' 1  5.0  0.0 /
38230 'GENCLS' 1  5.0  0.0 /
38235 'GENCLS' 1  5.0  0.0 /
38238 'GENCLS' 1  5.0  0.0 /
38249 'GENCLS' 1  5.0  0.0 /
38253 'GENCLS' 1  5.0  0.0 /
38265 'GENCLS' 1  5.0  0.0 /
38299 'GENCLS' 1  5.0  0.0 /
38310 'GENCLS' 1  5.0  0.0 /
38319 'GENCLS' 1  5.0  0.0 /
38341 'GENCLS' 1  5.0  0.0 /
38349 'GENCLS' 1  5.0  0.0 /
38357 'GENCLS' 1  5.0  0.0 /
38366 'GENCLS' 1  5.0  0.0 /
38386 'GENCLS' 1  5.0  0.0 /
38388 'GENCLS' 1  5.0  0.0 /
38390 'GENCLS' 1  5.0  0.0 /
38400 'GENCLS' 1  5.0  0.0 /
38405 'GENCLS' 1  5.0  0.0 /
39197 'GENCLS' 1  5.0  0.0 /
39198 'GENCLS' 1  5.0  0.0 /
39216 'GENCLS' 1  5.0  0.0 /
39217 'GENCLS' 1  5.0  0.0 /
39233 'GENCLS' 1  5.0  0.0 /
39234 'GENCLS' 1  5.0  0.0 /
39245 'GENCLS' 1  5.0  0.0 /
39246 'GENCLS' 1  5.0  0.0 /
39256 'GENCLS' 1  5.0  0.0 /
39260 'GENCLS' 1  5.0  0.0 /
39267 'GENCLS' 1  5.0  0.0 /
39271 'GENCLS' 1  5.0  0.0 /
39292 'GENCLS' 1  5.0  0.0 /
39296 'GENCLS' 1  5.0  0.0 /
39300 'GENCLS' 1  5.0  0.0 /
39304 'GENCLS' 1  5.0  0.0 /
39316 'GENCLS' 1  5.0  0.0 /
39326 'GENCLS' 1  5.0  0.0 /
39331 'GENCLS' 1  5.0  0.0 /
39340 'GENCLS' 1  5.0  0.0 /
39349 'GENCLS' 1  5.0  0.0 /
39361 'GENCLS' 1  5.0  0.0 /
39362 'GENCLS' 1  5.0  0.0 /
39385 'GENCLS' 1  5.0  0.0 /
39391 'GENCLS' 1  5.0  0.0 /
39439 'GENCLS' 1  5.0  0.0 /
39441 'GENCLS' 1  5.0  0.0 /
39467 'GENCLS' 1  5.0  0.0 /
39475 'GENCLS' 1  5.0  0.0 /
39493 'GENCLS' 1  5.0  0.0 /
39510 'GENCLS' 1  5.0  0.0 /
39512 'GENCLS' 1  5.0  0.0 /
39516 'GENCLS' 1  5.0  0.0 /
39550 'GENCLS' 1  5.0  0.0 /
39563 'GENCLS' 1  5.0  0.0 /
39564 'GENCLS' 1  5.0  0.0 /
39566 'GENCLS' 1  5.0  0.0 /
39574 'GENCLS' 1  5.0  0.0 /
39587 'GENCLS' 1  5.0  0.0 /
39594 'GENCLS' 1  5.0  0.0 /
39598 'GENCLS' 1  5.0  0.0 /
39601 'GENCLS' 1  5.0  0.0 /
39610 'GENCLS' 1  5.0  0.0 /
39615 'GENCLS' 1  5.0  0.0 /
39619 'GENCLS' 1  5.0  0.0 /
39625 'GENCLS' 1  5.0  0.0 /
40703 'GENCLS' 1  5.0  0.0 /
40709 'GENCLS' 1  5.0  0.0 /
40714 'GENCLS' 1  5.0  0.0 /
40735 'GENCLS' 1  5.0  0.0 /
40744 'GENCLS' 1  5.0  0.0 /
40746 'GENCLS' 1  5.0  0.0 /
40762 'GENCLS' 1  5.0  0.0 /
40763 'GENCLS' 1  5.0  0.0 /
40765 'GENCLS' 1  5.0  0.0 /
40774 'GENCLS' 1  5.0  0.0 /
40820 'GENCLS' 1  5.0  0.0 /
40824 'GENCLS' 1  5.0  0.0 /
40836 'GENCLS' 1  5.0  0.0 /
40856 'GENCLS' 1  5.0  0.0 /
40868 'GENCLS' 1  5.0  0.0 /
40874 'GENCLS' 1  5.0  0.0 /
40901 'GENCLS' 1  5.0  0.0 /
40920 'GENCLS' 1  5.0  0.0 /
40930 'GENCLS' 1  5.0  0.0 /
40932 'GENCLS' 1  5.0  0.0 /
40937 'GENCLS' 1  5.0  0.0 /
40946 'GENCLS' 1  5.0  0.0 /
40993 'GENCLS' 1  5.0  0.0 /
41007 'GENCLS' 1  5.0  0.0 /
41018 'GENCLS' 1  5.0  0.0 /
41030 'GENCLS' 1  5.0  0.0 /
41052 'GENCLS' 1  5.0  0.0 /
41059 'GENCLS' 1  5.0  0.0 /
41060 'GENCLS' 1  5.0  0.0 /
41088 'GENCLS' 1  5.0  0.0 /
41120 'GENCLS' 1  5.0  0.0 /
41124 'GENCLS' 1  5.0  0.0 /
41128 'GENCLS' 1  5.0  0.0 /
42598 'GENCLS' 1  5.0  0.0 /
42599 'GENCLS' 1  5.0  0.0 /
42601 'GENCLS' 1  5.0  0.0 /
42612 'GENCLS' 1  5.0  0.0 /
42617 'GENCLS' 1  5.0  0.0 /
42626 'GENCLS' 1  5.0  0.0 /
42651 'GENCLS' 1  5.0  0.0 /
42662 'GENCLS' 1  5.0  0.0 /
42664 'GENCLS' 1  5.0  0.0 /
42702 'GENCLS' 1  5.0  0.0 /
42715 'GENCLS' 1  5.0  0.0 /
42733 'GENCLS' 1  5.0  0.0 /
42734 'GENCLS' 1  5.0  0.0 /
42749 'GENCLS' 1  5.0  0.0 /
42768 'GENCLS' 1  5.0  0.0 /
42791 'GENCLS' 1  5.0  0.0 /
42798 'GENCLS' 1  5.0  0.0 /
42803 'GENCLS' 1  5.0  0.0 /
42822 'GENCLS' 1  5.0  0.0 /
42837 'GENCLS' 1  5.0  0.0 /
42840 'GENCLS' 1  5.0  0.0 /
42847 'GENCLS' 1  5.0  0.0 /
42854 'GENCLS' 1  5.0  0.0 /
42858 'GENCLS' 1  5.0  0.0 /
42871 'GENCLS' 1  5.0  0.0 /
42873 'GENCLS' 1  5.0  0.0 /
42895 'GENCLS' 1  5.0  0.0 /
42896 'GENCLS' 1  5.0  0.0 /
42910 'GENCLS' 1  5.0  0.0 /
42919 'GENCLS' 1  5.0  0.0 /
42937 'GENCLS' 1  5.0  0.0 /
42944 'GENCLS' 1  5.0  0.0 /
42948 'GENCLS' 1  5.0  0.0 /
42958 'GENCLS' 1  5.0  0.0 /
42969 'GENCLS' 1  5.0  0.0 /
42985 'GENCLS' 1  5.0  0.0 /
42986 'GENCLS' 1  5.0  0.0 /
43005 'GENCLS' 1  5.0  0.0 /
43009 'GENCLS' 1  5.0  0.0 /
43024 'GENCLS' 1  5.0  0.0 /
43039 'GENCLS' 1  5.0  0.0 /
44081 'GENCLS' 1  5.0  0.0 /
44083 'GENCLS' 1  5.0  0.0 /
44097 'GENCLS' 1  5.0  0.0 /
44120 'GENCLS' 1  5.0  0.0 /
44129 'GENCLS' 1  5.0  0.0 /
44175 'GENCLS' 1  5.0  0.0 /
44185 'GENCLS' 1  5.0  0.0 /
44199 'GENCLS' 1  5.0  0.0 /
44204 'GENCLS' 1  5.0  0.0 /
44205 'GENCLS' 1  5.0  0.0 /
44220 'GENCLS' 1  5.0  0.0 /
44229 'GENCLS' 1  5.0  0.0 /
44262 'GENCLS' 1  5.0  0.0 /
44269 'GENCLS' 1  5.0  0.0 /
44279 'GENCLS' 1  5.0  0.0 /
44286 'GENCLS' 1  5.0  0.0 /
44290 'GENCLS' 1  5.0  0.0 /
44299 'GENCLS' 1  5.0  0.0 /
44308 'GENCLS' 1  5.0  0.0 /
44309 'GENCLS' 1  5.0  0.0 /
44328 'GENCLS' 1  5.0  0.0 /
44329 'GENCLS' 1  5.0  0.0 /
44333 'GENCLS' 1  5.0  0.0 /
44339 'GENCLS' 1  5.0  0.0 /
44344 'GENCLS' 1  5.0  0.0 /
44345 'GENCLS' 1  5.0  0.0 /
44355 'GENCLS' 1  5.0  0.0 /
44391 'GENCLS' 1  5.0  0.0 /
44400 'GENCLS' 1  5.0  0.0 /
44407 'GENCLS' 1  5.0  0.0 /
44411 'GENCLS' 1  5.0  0.0 /
44447 'GENCLS' 1  5.0  0.0 /
44488 'GENCLS' 1  5.0  0.0 /
44497 'GENCLS' 1  5.0  0.0 /
44563 'GENCLS' 1  5.0  0.0 /
46288 'GENCLS' 1  5.0  0.0 /
46300 'GENCLS' 1  5.0  0.0 /
46330 'GENCLS' 1  5.0  0.0 /
46331 'GENCLS' 1  5.0  0.0 /
46337 'GENCLS' 1  5.0  0.0 /
46340 'GENCLS' 1  5.0  0.0 /
46353 'GENCLS' 1  5.0  0.0 /
46385 'GENCLS' 1  5.0  0.0 /
46389 'GENCLS' 1  5.0  0.0 /
46407 'GENCLS' 1  5.0  0.0 /
46412 'GENCLS' 1  5.0  0.0 /
46438 'GENCLS' 1  5.0  0.0 /
46442 'GENCLS' 1  5.0  0.0 /
46456 'GENCLS' 1  5.0  0.0 /
46460 'GENCLS' 1  5.0  0.0 /
46503 'GENCLS' 1  5.0  0.0 /
46504 'GENCLS' 1  5.0  0.0 /
46531 'GENCLS' 1  5.0  0.0 /
46539 'GENCLS' 1  5.0  0.0 /
46545 'GENCLS' 1  5.0  0.0 /
46550 'GENCLS' 1  5.0  0.0 /
46570 'GENCLS' 1  5.0  0.0 /
46584 'GENCLS' 1  5.0  0.0 /
46587 'GENCLS' 1  5.0  0.0 /
46605 'GENCLS' 1  5.0  0.0 /
46655 'GENCLS' 1  5.0  0.0 /
46681 'GENCLS' 1  5.0  0.0 /
46693 'GENCLS' 1  5.0  0.0 /
46698 'GENCLS' 1  5.0  0.0 /
46717 'GENCLS' 1  5.0  0.0 /
46742 'GENCLS' 1  5.0  0.0 /
48262 'GENCLS' 1  5.0  0.0 /
48278 'GENCLS' 1  5.0  0.0 /
48284 'GENCLS' 1  5.0  0.0 /
48286 'GENCLS' 1  5.0  0.0 /
48293 'GENCLS' 1  5.0  0.0 /
48309 'GENCLS' 1  5.0  0.0 /
48310 'GENCLS' 1  5.0  0.0 /
48315 'GENCLS' 1  5.0  0.0 /
48332 'GENCLS' 1  5.0  0.0 /
48333 'GENCLS' 1  5.0  0.0 /
48349 'GENCLS' 1  5.0  0.0 /
48370 'GENCLS' 1  5.0  0.0 /
48373 'GENCLS' 1  5.0  0.0 /
48384 'GENCLS' 1  5.0  0.0 /
48389 'GENCLS' 1  5.0  0.0 /
48398 'GENCLS' 1  5.0  0.0 /
48416 'GENCLS' 1  5.0  0.0 /
48421 'GENCLS' 1  5.0  0.0 /
48425 'GENCLS' 1  5.0  0.0 /
48448 'GENCLS' 1  5.0  0.0 /
48459 'GENCLS' 1  5.0  0.0 /
48490 'GENCLS' 1  5.0  0.0 /
48497 'GENCLS' 1  5.0  0.0 /
48518 'GENCLS' 1  5.0  0.0 /
48535 'GENCLS' 1  5.0  0.0 /
48558 'GENCLS' 1  5.0  0.0 /
48580 'GENCLS' 1  5.0  0.0 /
48602 'GENCLS' 1  5.0  0.0 /
48629 'GENCLS' 1  5.0  0.0 /
48642 'GENCLS' 1  5.0  0.0 /
48648 'GENCLS' 1  5.0  0.0 /
48662 'GENCLS' 1  5.0  0.0 /
48663 'GENCLS' 1  5.0  0.0 /
48671 'GENCLS' 1  5.0  0.0 /
48680 'GENCLS' 1  5.0  0.0 /
48701 'GENCLS' 1  5.0  0.0 /
48710 'GENCLS' 1  5.0  0.0 /
48714 'GENCLS' 1  5.0  0.0 /
48734 'GENCLS' 1  5.0  0.0 /
48735 'GENCLS' 1  5.0  0.0 /
48757 'GENCLS' 1  5.0  0.0 /
48775 'GENCLS' 1  5.0  0.0 /
48795 'GENCLS' 1  5.0  0.0 /
48808 'GENCLS' 1  5.0  0.0 /
48838 'GENCLS' 1  5.0  0.0 /
48856 'GENCLS' 1  5.0  0.0 /
48858 'GENCLS' 1  5.0  0.0 /
48868 'GENCLS' 1  5.0  0.0 /
48871 'GENCLS' 1  5.0  0.0 /
48880 'GENCLS' 1  5.0  0.0 /
48897 'GENCLS' 1  5.0  0.0 /
48900 'GENCLS' 1  5.0  0.0 /