// GENCLS: BUS 'GENCLS' ID H D /
1004 'GENCLS' 1  5.0  0.0 /
1006 'GENCLS' 1  5.0  0.0 /
1009 'GENCLS' 1  5.0  0.0 /
1011 'GENCLS' 1  5.0  0.0 /
1021 'GENCLS' 1  5.0  0.0 /
1023 'GENCLS' 1  5.0  0.0 /
1026 'GENCLS' 1  5.0  0.0 /
1033 'GENCLS' 1  5.0  0.0 /
1035 'GENCLS' 1  5.0  0.0 /
1039 'GENCLS' 1  5.0  0.0 /
1042 'GENCLS' 1  5.0  0.0 /
1043 'GENCLS' 1  5.0  0.0 /
1048 'GENCLS' 1  5.0  0.0 /
1049 'GENCLS' 1  5.0  0.0 /
1050 'GENCLS' 1  5.0  0.0 /
1051 'GENCLS' 1  5.0  0.0 /
1052 'GENCLS' 1  5.0  0.0 /
1053 'GENCLS' 1  5.0  0.0 /
1057 'GENCLS' 1  5.0  0.0 /
1059 'GENCLS' 1  5.0  0.0 /
1060 'GENCLS' 1  5.0  0.0 /
1062 'GENCLS' 1  5.0  0.0 /
1063 'GENCLS' 1  5.0  0.0 /
1066 'GENCLS' 1  5.0  0.0 /
1070 'GENCLS' 1  5.0  0.0 /
1072 'GENCLS' 1  5.0  0.0 /
1073 'GENCLS' 1  5.0  0.0 /
1074 'GENCLS' 1  5.0  0.0 /
1075 'GENCLS' 1  5.0  0.0 /
1076 'GENCLS' 1  5.0  0.0 /
1077 'GENCLS' 1  5.0  0.0 /
1078 'GENCLS' 1  5.0  0.0 /
1079 'GENCLS' 1  5.0  0.0 /
1080 'GENCLS' 1  5.0  0.0 /
1081 'GENCLS' 1  5.0  0.0 /
1082 'GENCLS' 1  5.0  0.0 /
1084 'GENCLS' 1  5.0  0.0 /
1088 'GENCLS' 1  5.0  0.0 /
1090 'GENCLS' 1  5.0  0.0 /
1090 'GENCLS' 2  5.0  0.0 /
2004 'GENCLS' 1  5.0  0.0 /
2005 'GENCLS' 1  5.0  0.0 /
2006 'GENCLS' 1  5.0  0.0 /
2013 'GENCLS' 1  5.0  0.0 /
2019 'GENCLS' 1  5.0  0.0 /
2023 'GENCLS' 1  5.0  0.0 /
2024 'GENCLS' 1  5.0  0.0 /
2042 'GENCLS' 1  5.0  0.0 /
2056 'GENCLS' 1  5.0  0.0 /
2057 'GENCLS' 1  5.0  0.0 /
2059 'GENCLS' 1  5.0  0.0 /
2062 'GENCLS' 1  5.0  0.0 /
2071 'GENCLS' 1  5.0  0.0 /
2076 'GENCLS' 1  5.0  0.0 /
2078 'GENCLS' 1  5.0  0.0 /
2083 'GENCLS' 1  5.0  0.0 /
2084 'GENCLS' 1  5.0  0.0 /
2085 'GENCLS' 1  5.0  0.0 /
2089 'GENCLS' 1  5.0  0.0 /
2094 'GENCLS' 1  5.0  0.0 /
2095 'GENCLS' 1  5.0  0.0 /
2099 'GENCLS' 1  5.0  0.0 /
2100 'GENCLS' 1  5.0  0.0 /
2103 'GENCLS' 1  5.0  0.0 /
2104 'GENCLS' 1  5.0  0.0 /
2105 'GENCLS' 1  5.0  0.0 /
2115 'GENCLS' 1  5.0  0.0 /
2116 'GENCLS' 1  5.0  0.0 /
2117 'GENCLS' 1  5.0  0.0 /
2118 'GENCLS' 1  5.0  0.0 /
2119 'GENCLS' 1  5.0  0.0 /
2120 'GENCLS' 1  5.0  0.0 /
2123 'GENCLS' 1  5.0  0.0 /
2127 'GENCLS' 1  5.0  0.0 /
3004 'GENCLS' 1  5.0  0.0 /
3017 'GENCLS' 1  5.0  0.0 /
3020 'GENCLS' 1  5.0  0.0 /
3028 'GENCLS' 1  5.0  0.0 /
3034 'GENCLS' 1  5.0  0.0 /
3039 'GENCLS' 1  5.0  0.0 /
3043 'GENCLS' 1  5.0  0.0 /
3044 'GENCLS' 1  5.0  0.0 /
3045 'GENCLS' 1  5.0  0.0 /
3048 'GENCLS' 1  5.0  0.0 /
3055 'GENCLS' 1  5.0  0.0 /
3056 'GENCLS' 1  5.0  0.0 /
3057 'GENCLS' 1  5.0  0.0 /
3060 'GENCLS' 1  5.0  0.0 /
3061 'GENCLS' 1  5.0  0.0 /
3062 'GENCLS' 1  5.0  0.0 /
3063 'GENCLS' 1  5.0  0.0 /
3065 'GENCLS' 1  5.0  0.0 /
3068 'GENCLS' 1  5.0  0.0 /
3071 'GENCLS' 1  5.0  0.0 /
3074 'GENCLS' 1  5.0  0.0 /
3081 'GENCLS' 1  5.0  0.0 /
3084 'GENCLS' 1  5.0  0.0 /
3086 'GENCLS' 1  5.0  0.0 /
3087 'GENCLS' 1  5.0  0.0 /
3092 'GENCLS' 1  5.0  0.0 /
3095 'GENCLS' 1  5.0  0.0 /
3098 'GENCLS' 1  5.0  0.0 /
3105 'GENCLS' 1  5.0  0.0 /
3106 'GENCLS' 1  5.0  0.0 /
3110 'GENCLS' 1  5.0  0.0 /
3112 'GENCLS' 1  5.0  0.0 /
3113 'GENCLS' 1  5.0  0.0 /
3117 'GENCLS' 1  5.0  0.0 /
3118 'GENCLS' 1  5.0  0.0 /
3120 'GENCLS' 1  5.0  0.0 /
3122 'GENCLS' 1  5.0  0.0 /
3127 'GENCLS' 1  5.0  0.0 /
3129 'GENCLS' 1  5.0  0.0 /
3131 'GENCLS' 1  5.0  0.0 /
3133 'GENCLS' 1  5.0  0.0 /
3133 'GENCLS' 2  5.0  0.0 /
3133 'GENCLS' 3  5.0  0.0 /
3137 'GENCLS' 1  5.0  0.0 /
3141 'GENCLS' 1  5.0  0.0 /
4010 'GENCLS' 1  5.0  0.0 /
4026 'GENCLS' 1  5.0  0.0 /
4030 'GENCLS' 1  5.0  0.0 /
4045 'GENCLS' 1  5.0  0.0 /
4046 'GENCLS' 1  5.0  0.0 /
4047 'GENCLS' 1  5.0  0.0 /
4050 'GENCLS' 1  5.0  0.0 /
4052 'GENCLS' 1  5.0  0.0 /
4058 'GENCLS' 1  5.0  0.0 /
4059 'GENCLS' 1  5.0  0.0 /
4060 'GENCLS' 1  5.0  0.0 /
4061 'GENCLS' 1  5.0  0.0 /
4062 'GENCLS' 1  5.0  0.0 /
4063 'GENCLS' 1  5.0  0.0 /
4065 'GENCLS' 1  5.0  0.0 /
4075 'GENCLS' 1  5.0  0.0 /
4076 'GENCLS' 1  5.0  0.0 /
4077 'GENCLS' 1  5.0  0.0 /
4082 'GENCLS' 1  5.0  0.0 /
4083 'GENCLS' 1  5.0  0.0 /
4084 'GENCLS' 1  5.0  0.0 /
4085 'GENCLS' 1  5.0  0.0 /
4090 'GENCLS' 1  5.0  0.0 /
4091 'GENCLS' 1  5.0  0.0 /
4092 'GENCLS' 1  5.0  0.0 /
4093 'GENCLS' 1  5.0  0.0 /
4094 'GENCLS' 1  5.0  0.0 /
4095 'GENCLS' 1  5.0  0.0 /
4096 'GENCLS' 1  5.0  0.0 /
4097 'GENCLS' 1  5.0  0.0 /
4098 'GENCLS' 1  5.0  0.0 /
4105 'GENCLS' 1  5.0  0.0 /
4115 'GENCLS' 1  5.0  0.0 /
4116 'GENCLS' 1  5.0  0.0 /
4133 'GENCLS' 1  5.0  0.0 /
4134 'GENCLS' 1  5.0  0.0 /
4135 'GENCLS' 1  5.0  0.0 /
4136 'GENCLS' 1  5.0  0.0 /
4137 'GENCLS' 1  5.0  0.0 /
4138 'GENCLS' 1  5.0  0.0 /
4142 'GENCLS' 1  5.0  0.0 /
4153 'GENCLS' 1  5.0  0.0 /
4160 'GENCLS' 1  5.0  0.0 /
4161 'GENCLS' 1  5.0  0.0 /
4162 'GENCLS' 1  5.0  0.0 /
4163 'GENCLS' 1  5.0  0.0 /
4166 'GENCLS' 1  5.0  0.0 /
4177 'GENCLS' 1  5.0  0.0 /
4181 'GENCLS' 1  5.0  0.0 /
4183 'GENCLS' 1  5.0  0.0 /
4192 'GENCLS' 1  5.0  0.0 /
4192 'GENCLS' 10  5.0  0.0 /
4192 'GENCLS' 2  5.0  0.0 /
4192 'GENCLS' 3  5.0  0.0 /
4192 'GENCLS' 4  5.0  0.0 /
4192 'GENCLS' 5  5.0  0.0 /
4192 'GENCLS' 6  5.0  0.0 /
4192 'GENCLS' 7  5.0  0.0 /
4192 'GENCLS' 8  5.0  0.0 /
4192 'GENCLS' 9  5.0  0.0 /
5002 'GENCLS' 1  5.0  0.0 /
5020 'GENCLS' 1  5.0  0.0 /
5023 'GENCLS' 1  5.0  0.0 /
5035 'GENCLS' 1  5.0  0.0 /
5036 'GENCLS' 1  5.0  0.0 /
5037 'GENCLS' 1  5.0  0.0 /
5038 'GENCLS' 1  5.0  0.0 /
5039 'GENCLS' 1  5.0  0.0 /
5040 'GENCLS' 1  5.0  0.0 /
5041 'GENCLS' 1  5.0  0.0 /
5042 'GENCLS' 1  5.0  0.0 /
5051 'GENCLS' 1  5.0  0.0 /
5052 'GENCLS' 1  5.0  0.0 /
5057 'GENCLS' 1  5.0  0.0 /
5058 'GENCLS' 1  5.0  0.0 /
5065 'GENCLS' 1  5.0  0.0 /
5066 'GENCLS' 1  5.0  0.0 /
5067 'GENCLS' 1  5.0  0.0 /
5068 'GENCLS' 1  5.0  0.0 /
5069 'GENCLS' 1  5.0  0.0 /
5089 'GENCLS' 1  5.0  0.0 /
5106 'GENCLS' 1  5.0  0.0 /
5107 'GENCLS' 1  5.0  0.0 /
5166 'GENCLS' 1  5.0  0.0 /
5167 'GENCLS' 1  5.0  0.0 /
5170 'GENCLS' 1  5.0  0.0 /
5198 'GENCLS' 1  5.0  0.0 /
5206 'GENCLS' 1  5.0  0.0 /
5207 'GENCLS' 1  5.0  0.0 /
5208 'GENCLS' 1  5.0  0.0 /
5238 'GENCLS' 1  5.0  0.0 /
5243 'GENCLS' 1  5.0  0.0 /
5262 'GENCLS' 1  5.0  0.0 /
5263 'GENCLS' 1  5.0  0.0 /
5281 'GENCLS' 1  5.0  0.0 /
5282 'GENCLS' 1  5.0  0.0 /
5283 'GENCLS' 1  5.0  0.0 /
5297 'GENCLS' 1  5.0  0.0 /
5298 'GENCLS' 1  5.0  0.0 /
5299 'GENCLS' 1  5.0  0.0 /
5300 'GENCLS' 1  5.0  0.0 /
5301 'GENCLS' 1  5.0  0.0 /
5302 'GENCLS' 1  5.0  0.0 /
5303 'GENCLS' 1  5.0  0.0 /
5319 'GENCLS' 1  5.0  0.0 /
5320 'GENCLS' 1  5.0  0.0 /
5321 'GENCLS' 1  5.0  0.0 /
5324 'GENCLS' 1  5.0  0.0 /
5325 'GENCLS' 1  5.0  0.0 /
5326 'GENCLS' 1  5.0  0.0 /
5342 'GENCLS' 1  5.0  0.0 /
5343 'GENCLS' 1  5.0  0.0 /
5360 'GENCLS' 1  5.0  0.0 /
5363 'GENCLS' 1  5.0  0.0 /
5364 'GENCLS' 1  5.0  0.0 /
5365 'GENCLS' 1  5.0  0.0 /
5366 'GENCLS' 1  5.0  0.0 /
5367 'GENCLS' 1  5.0  0.0 /
5368 'GENCLS' 1  5.0  0.0 /
5369 'GENCLS' 1  5.0  0.0 /
5382 'GENCLS' 1  5.0  0.0 /
5383 'GENCLS' 1  5.0  0.0 /
5399 'GENCLS' 1  5.0  0.0 /
5403 'GENCLS' 1  5.0  0.0 /
5404 'GENCLS' 1  5.0  0.0 /
5405 'GENCLS' 1  5.0  0.0 /
5406 'GENCLS' 1  5.0  0.0 /
5415 'GENCLS' 1  5.0  0.0 /
5416 'GENCLS' 1  5.0  0.0 /
5417 'GENCLS' 1  5.0  0.0 /
5418 'GENCLS' 1  5.0  0.0 /
5419 'GENCLS' 1  5.0  0.0 /
5423 'GENCLS' 1  5.0  0.0 /
5424 'GENCLS' 1  5.0  0.0 /
5444 'GENCLS' 1  5.0  0.0 /
5444 'GENCLS' 2  5.0  0.0 /
5444 'GENCLS' 3  5.0  0.0 /
5444 'GENCLS' 4  5.0  0.0 /
5444 'GENCLS' 5  5.0  0.0 /
5444 'GENCLS' 6  5.0  0.0 /
5444 'GENCLS' 7  5.0  0.0 /
5444 'GENCLS' 8  5.0  0.0 /
6006 'GENCLS' 1  5.0  0.0 /
6007 'GENCLS' 1  5.0  0.0 /
6008 'GENCLS' 1  5.0  0.0 /
6009 'GENCLS' 1  5.0  0.0 /
6010 'GENCLS' 1  5.0  0.0 /
6041 'GENCLS' 1  5.0  0.0 /
6042 'GENCLS' 1  5.0  0.0 /
6048 'GENCLS' 1  5.0  0.0 /
6049 'GENCLS' 1  5.0  0.0 /
6050 'GENCLS' 1  5.0  0.0 /
6051 'GENCLS' 1  5.0  0.0 /
6052 'GENCLS' 1  5.0  0.0 /
6053 'GENCLS' 1  5.0  0.0 /
6054 'GENCLS' 1  5.0  0.0 /
6069 'GENCLS' 1  5.0  0.0 /
6070 'GENCLS' 1  5.0  0.0 /
6071 'GENCLS' 1  5.0  0.0 /
6072 'GENCLS' 1  5.0  0.0 /
6073 'GENCLS' 1  5.0  0.0 /
6074 'GENCLS' 1  5.0  0.0 /
6078 'GENCLS' 1  5.0  0.0 /
6079 'GENCLS' 1  5.0  0.0 /
6080 'GENCLS' 1  5.0  0.0 /
6082 'GENCLS' 1  5.0  0.0 /
6083 'GENCLS' 1  5.0  0.0 /
6085 'GENCLS' 1  5.0  0.0 /
6086 'GENCLS' 1  5.0  0.0 /
6087 'GENCLS' 1  5.0  0.0 /
6088 'GENCLS' 1  5.0  0.0 /
6089 'GENCLS' 1  5.0  0.0 /
6090 'GENCLS' 1  5.0  0.0 /
6104 'GENCLS' 1  5.0  0.0 /
6105 'GENCLS' 1  5.0  0.0 /
6106 'GENCLS' 1  5.0  0.0 /
6110 'GENCLS' 1  5.0  0.0 /
6111 'GENCLS' 1  5.0  0.0 /
6144 'GENCLS' 1  5.0  0.0 /
6145 'GENCLS' 1  5.0  0.0 /
6146 'GENCLS' 1  5.0  0.0 /
6147 'GENCLS' 1  5.0  0.0 /
6148 'GENCLS' 1  5.0  0.0 /
6149 'GENCLS' 1  5.0  0.0 /
6164 'GENCLS' 1  5.0  0.0 /
6165 'GENCLS' 1  5.0  0.0 /
6166 'GENCLS' 1  5.0  0.0 /
6167 'GENCLS' 1  5.0  0.0 /
6213 'GENCLS' 1  5.0  0.0 /
6214 'GENCLS' 1  5.0  0.0 /
6215 'GENCLS' 1  5.0  0.0 /
6216 'GENCLS' 1  5.0  0.0 /
6242 'GENCLS' 1  5.0  0.0 /
6243 'GENCLS' 1  5.0  0.0 /
6244 'GENCLS' 1  5.0  0.0 /
6245 'GENCLS' 1  5.0  0.0 /
6246 'GENCLS' 1  5.0  0.0 /
6247 'GENCLS' 1  5.0  0.0 /
6248 'GENCLS' 1  5.0  0.0 /
6249 'GENCLS' 1  5.0  0.0 /
6257 'GENCLS' 1  5.0  0.0 /
6258 'GENCLS' 1  5.0  0.0 /
6259 'GENCLS' 1  5.0  0.0 /
6260 'GENCLS' 1  5.0  0.0 /
6266 'GENCLS' 1  5.0  0.0 /
6267 'GENCLS' 1  5.0  0.0 /
6268 'GENCLS' 1  5.0  0.0 /
6269 'GENCLS' 1  5.0  0.0 /
6270 'GENCLS' 1  5.0  0.0 /
6271 'GENCLS' 1  5.0  0.0 /
6272 'GENCLS' 1  5.0  0.0 /
6273 'GENCLS' 1  5.0  0.0 /
6274 'GENCLS' 1  5.0  0.0 /
6295 'GENCLS' 1  5.0  0.0 /
6296 'GENCLS' 1  5.0  0.0 /
6297 'GENCLS' 1  5.0  0.0 /
6301 'GENCLS' 1  5.0  0.0 /
6302 'GENCLS' 1  5.0  0.0 /
6303 'GENCLS' 1  5.0  0.0 /
6304 'GENCLS' 1  5.0  0.0 /
6305 'GENCLS' 1  5.0  0.0 /
6346 'GENCLS' 1  5.0  0.0 /
6349 'GENCLS' 1  5.0  0.0 /
6349 'GENCLS' 10  5.0  0.0 /
6349 'GENCLS' 11  5.0  0.0 /
6349 'GENCLS' 2  5.0  0.0 /
6349 'GENCLS' 3  5.0  0.0 /
6349 'GENCLS' 4  5.0  0.0 /
6349 'GENCLS' 5  5.0  0.0 /
6349 'GENCLS' 6  5.0  0.0 /
6349 'GENCLS' 7  5.0  0.0 /
6349 'GENCLS' 8  5.0  0.0 /
6349 'GENCLS' 9  5.0  0.0 /
7005 'GENCLS' 1  5.0  0.0 /
7006 'GENCLS' 1  5.0  0.0 /
7007 'GENCLS' 1  5.0  0.0 /
7008 'GENCLS' 1  5.0  0.0 /
7009 'GENCLS' 1  5.0  0.0 /
7015 'GENCLS' 1  5.0  0.0 /
7021 'GENCLS' 1  5.0  0.0 /
7022 'GENCLS' 1  5.0  0.0 /
7023 'GENCLS' 1  5.0  0.0 /
7024 'GENCLS' 1  5.0  0.0 /
7025 'GENCLS' 1  5.0  0.0 /
7031 'GENCLS' 1  5.0  0.0 /
7032 'GENCLS' 1  5.0  0.0 /
7033 'GENCLS' 1  5.0  0.0 /
7034 'GENCLS' 1  5.0  0.0 /
7045 'GENCLS' 1  5.0  0.0 /
7046 'GENCLS' 1  5.0  0.0 /
7061 'GENCLS' 1  5.0  0.0 /
7062 'GENCLS' 1  5.0  0.0 /
7063 'GENCLS' 1  5.0  0.0 /
7064 'GENCLS' 1  5.0  0.0 /
7065 'GENCLS' 1  5.0  0.0 /
7066 'GENCLS' 1  5.0  0.0 /
7079 'GENCLS' 1  5.0  0.0 /
7080 'GENCLS' 1  5.0  0.0 /
7081 'GENCLS' 1  5.0  0.0 /
7082 'GENCLS' 1  5.0  0.0 /
7098 'GENCLS' 1  5.0  0.0 /
7099 'GENCLS' 1  5.0  0.0 /
7107 'GENCLS' 1  5.0  0.0 /
7108 'GENCLS' 1  5.0  0.0 /
7109 'GENCLS' 1  5.0  0.0 /
7110 'GENCLS' 1  5.0  0.0 /
7111 'GENCLS' 1  5.0  0.0 /
7112 'GENCLS' 1  5.0  0.0 /
7113 'GENCLS' 1  5.0  0.0 /
7114 'GENCLS' 1  5.0  0.0 /
7115 'GENCLS' 1  5.0  0.0 /
7121 'GENCLS' 1  5.0  0.0 /
7122 'GENCLS' 1  5.0  0.0 /
7133 'GENCLS' 1  5.0  0.0 /
7134 'GENCLS' 1  5.0  0.0 /
7135 'GENCLS' 1  5.0  0.0 /
7136 'GENCLS' 1  5.0  0.0 /
7137 'GENCLS' 1  5.0  0.0 /
7138 'GENCLS' 1  5.0  0.0 /
7139 'GENCLS' 1  5.0  0.0 /
7140 'GENCLS' 1  5.0  0.0 /
7141 'GENCLS' 1  5.0  0.0 /
7142 'GENCLS' 1  5.0  0.0 /
7146 'GENCLS' 1  5.0  0.0 /
7162 'GENCLS' 1  5.0  0.0 /
7163 'GENCLS' 1  5.0  0.0 /
7164 'GENCLS' 1  5.0  0.0 /
7165 'GENCLS' 1  5.0  0.0 /
7166 'GENCLS' 1  5.0  0.0 /
7167 'GENCLS' 1  5.0  0.0 /
7168 'GENCLS' 1  5.0  0.0 /
7169 'GENCLS' 1  5.0  0.0 /
7170 'GENCLS' 1  5.0  0.0 /
7189 'GENCLS' 1  5.0  0.0 /
7190 'GENCLS' 1  5.0  0.0 /
7191 'GENCLS' 1  5.0  0.0 /
7192 'GENCLS' 1  5.0  0.0 /
7193 'GENCLS' 1  5.0  0.0 /
7194 'GENCLS' 1  5.0  0.0 /
7195 'GENCLS' 1  5.0  0.0 /
7196 'GENCLS' 1  5.0  0.0 /
7197 'GENCLS' 1  5.0  0.0 /
7207 'GENCLS' 1  5.0  0.0 /
7208 'GENCLS' 1  5.0  0.0 /
7209 'GENCLS' 1  5.0  0.0 /
7210 'GENCLS' 1  5.0  0.0 /
7211 'GENCLS' 1  5.0  0.0 /
7212 'GENCLS' 1  5.0  0.0 /
7266 'GENCLS' 1  5.0  0.0 /
7267 'GENCLS' 1  5.0  0.0 /
7268 'GENCLS' 1  5.0  0.0 /
7269 'GENCLS' 1  5.0  0.0 /
7270 'GENCLS' 1  5.0  0.0 /
7280 'GENCLS' 1  5.0  0.0 /
7281 'GENCLS' 1  5.0  0.0 /
7284 'GENCLS' 1  5.0  0.0 /
7285 'GENCLS' 1  5.0  0.0 /
7286 'GENCLS' 1  5.0  0.0 /
7287 'GENCLS' 1  5.0  0.0 /
7288 'GENCLS' 1  5.0  0.0 /
7289 'GENCLS' 1  5.0  0.0 /
7307 'GENCLS' 1  5.0  0.0 /
7308 'GENCLS' 1  5.0  0.0 /
7309 'GENCLS' 1  5.0  0.0 /
7310 'GENCLS' 1  5.0  0.0 /
7311 'GENCLS' 1  5.0  0.0 /
7323 'GENCLS' 1  5.0  0.0 /
7324 'GENCLS' 1  5.0  0.0 /
7325 'GENCLS' 1  5.0  0.0 /
7326 'GENCLS' 1  5.0  0.0 /
7329 'GENCLS' 1  5.0  0.0 /
7334 'GENCLS' 1  5.0  0.0 /
7335 'GENCLS' 1  5.0  0.0 /
7349 'GENCLS' 1  5.0  0.0 /
7350 'GENCLS' 1  5.0  0.0 /
7351 'GENCLS' 1  5.0  0.0 /
7352 'GENCLS' 1  5.0  0.0 /
7353 'GENCLS' 1  5.0  0.0 /
7354 'GENCLS' 1  5.0  0.0 /
7355 'GENCLS' 1  5.0  0.0 /
7356 'GENCLS' 1  5.0  0.0 /
7357 'GENCLS' 1  5.0  0.0 /
7358 'GENCLS' 1  5.0  0.0 /
7359 'GENCLS' 1  5.0  0.0 /
7360 'GENCLS' 1  5.0  0.0 /
7361 'GENCLS' 1  5.0  0.0 /
7369 'GENCLS' 1  5.0  0.0 /
7370 'GENCLS' 1  5.0  0.0 /
7371 'GENCLS' 1  5.0  0.0 /
7372 'GENCLS' 1  5.0  0.0 /
7373 'GENCLS' 1  5.0  0.0 /
7374 'GENCLS' 1  5.0  0.0 /
7375 'GENCLS' 1  5.0  0.0 /
7376 'GENCLS' 1  5.0  0.0 /
7377 'GENCLS' 1  5.0  0.0 /
7378 'GENCLS' 1  5.0  0.0 /
7379 'GENCLS' 1  5.0  0.0 /
7389 'GENCLS' 1  5.0  0.0 /
7400 'GENCLS' 1  5.0  0.0 /
7400 'GENCLS' 2  5.0  0.0 /
7400 'GENCLS' 3  5.0  0.0 /
7400 'GENCLS' 4  5.0  0.0 /
7400 'GENCLS' 5  5.0  0.0 /
7400 'GENCLS' 6  5.0  0.0 /
7406 'GENCLS' 1  5.0  0.0 /
7406 'GENCLS' 2  5.0  0.0 /
7414 'GENCLS' 1  5.0  0.0 /
7419 'GENCLS' 1  5.0  0.0 /
7419 'GENCLS' 2  5.0  0.0 /
7422 'GENCLS' 1  5.0  0.0 /
7422 'GENCLS' 10  5.0  0.0 /
7422 'GENCLS' 11  5.0  0.0 /
7422 'GENCLS' 2  5.0  0.0 /
7422 'GENCLS' 3  5.0  0.0 /
7422 'GENCLS' 4  5.0  0.0 /
7422 'GENCLS' 5  5.0  0.0 /
7422 'GENCLS' 6  5.0  0.0 /
7422 'GENCLS' 7  5.0  0.0 /
7422 'GENCLS' 8  5.0  0.0 /
7422 'GENCLS' 9  5.0  0.0 /
7428 'GENCLS' 1  5.0  0.0 /
7428 'GENCLS' 10  5.0  0.0 /
7428 'GENCLS' 11  5.0  0.0 /
7428 'GENCLS' 2  5.0  0.0 /
7428 'GENCLS' 3  5.0  0.0 /
7428 'GENCLS' 4  5.0  0.0 /
7428 'GENCLS' 5  5.0  0.0 /
7428 'GENCLS' 6  5.0  0.0 /
7428 'GENCLS' 7  5.0  0.0 /
7428 'GENCLS' 8  5.0  0.0 /
7428 'GENCLS' 9  5.0  0.0 /
8024 'GENCLS' 1  5.0  0.0 /
8033 'GENCLS' 1  5.0  0.0 /
8034 'GENCLS' 1  5.0  0.0 /
8035 'GENCLS' 1  5.0  0.0 /
8036 'GENCLS' 1  5.0  0.0 /
8046 'GENCLS' 1  5.0  0.0 /
8047 'GENCLS' 1  5.0  0.0 /
8048 'GENCLS' 1  5.0  0.0 /
8049 'GENCLS' 1  5.0  0.0 /
8050 'GENCLS' 1  5.0  0.0 /
8051 'GENCLS' 1  5.0  0.0 /
8060 'GENCLS' 1  5.0  0.0 /
8061 'GENCLS' 1  5.0  0.0 /
8070 'GENCLS' 1  5.0  0.0 /
8071 'GENCLS' 1  5.0  0.0 /
8077 'GENCLS' 1  5.0  0.0 /
8078 'GENCLS' 1  5.0  0.0 /
8079 'GENCLS' 1  5.0  0.0 /
8080 'GENCLS' 1  5.0  0.0 /
8087 'GENCLS' 1  5.0  0.0 /
8088 'GENCLS' 1  5.0  0.0 /
8099 'GENCLS' 1  5.0  0.0 /
8115 'GENCLS' 1  5.0  0.0 /
8116 'GENCLS' 1  5.0  0.0 /
8117 'GENCLS' 1  5.0  0.0 /
8129 'GENCLS' 1  5.0  0.0 /
8130 'GENCLS' 1  5.0  0.0 /
8131 'GENCLS' 1  5.0  0.0 /
8147 'GENCLS' 1  5.0  0.0 /
8147 'GENCLS' 2  5.0  0.0 /
8152 'GENCLS' 1  5.0  0.0 /
8155 'GENCLS' 1  5.0  0.0 /
8155 'GENCLS' 2  5.0  0.0 /
8158 'GENCLS' 1  5.0  0.0 /
8158 'GENCLS' 2  5.0  0.0 /

// SEXS: BUS 'SEXS' ID TATB TB K TE EMIN EMAX /
1004 'SEXS' 1  0.1  10.0  100.0  0.1  -999.0  999.0 /
1006 'SEXS' 1  0.1  10.0  100.0  0.1  -999.0  999.0 /
1009 'SEXS' 1  0.1  10.0  100.0  0.1  -999.0  999.0 /
1011 'SEXS' 1  0.1  10.0  100.0  0.1  -999.0  999.0 /
1021 'SEXS' 1  0.1  10.0  100.0  0.1  -999.0  999.0 /
1023 'SEXS' 1  0.1  10.0  100.0  0.1  -999.0  999.0 /
1026 'SEXS' 1  0.1  10.0  100.0  0.1  -999.0  999.0 /
1033 'SEXS' 1  0.1  10.0  100.0  0.1  -999.0  999.0 /
1035 'SEXS' 1  0.1  10.0  100.0  0.1  -999.0  999.0 /
1039 'SEXS' 1  0.1  10.0  100.0  0.1  -999.0  999.0 /
1042 'SEXS' 1  0.1  10.0  100.0  0.1  -999.0  999.0 /
1043 'SEXS' 1  0.1  10.0  100.0  0.1  -999.0  999.0 /
1048 'SEXS' 1  0.1  10.0  100.0  0.1  -999.0  999.0 /
1049 'SEXS' 1  0.1  10.0  100.0  0.1  -999.0  999.0 /
1050 'SEXS' 1  0.1  10.0  100.0  0.1  -999.0  999.0 /
1051 'SEXS' 1  0.1  10.0  100.0  0.1  -999.0  999.0 /
1052 'SEXS' 1  0.1  10.0  100.0  0.1  -999.0  999.0 /
1053 'SEXS' 1  0.1  10.0  100.0  0.1  -999.0  999.0 /
1057 'SEXS' 1  0.1  10.0  100.0  0.1  -999.0  999.0 /
1059 'SEXS' 1  0.1  10.0  100.0  0.1  -999.0  999.0 /
1060 'SEXS' 1  0.1  10.0  100.0  0.1  -999.0  999.0 /
1062 'SEXS' 1  0.1  10.0  100.0  0.1  -999.0  999.0 /
1063 'SEXS' 1  0.1  10.0  100.0  0.1  -999.0  999.0 /
1066 'SEXS' 1  0.1  10.0  100.0  0.1  -999.0  999.0 /
1070 'SEXS' 1  0.1  10.0  100.0  0.1  -999.0  999.0 /
1072 'SEXS' 1  0.1  10.0  100.0  0.1  -999.0  999.0 /
1073 'SEXS' 1  0.1  10.0  100.0  0.1  -999.0  999.0 /
1074 'SEXS' 1  0.1  10.0  100.0  0.1  -999.0  999.0 /
1075 'SEXS' 1  0.1  10.0  100.0  0.1  -999.0  999.0 /
1076 'SEXS' 1  0.1  10.0  100.0  0.1  -999.0  999.0 /
1077 'SEXS' 1  0.1  10.0  100.0  0.1  -999.0  999.0 /
1078 'SEXS' 1  0.1  10.0  100.0  0.1  -999.0  999.0 /
1079 'SEXS' 1  0.1  10.0  100.0  0.1  -999.0  999.0 /
1080 'SEXS' 1  0.1  10.0  100.0  0.1  -999.0  999.0 /
1081 'SEXS' 1  0.1  10.0  100.0  0.1  -999.0  999.0 /
1082 'SEXS' 1  0.1  10.0  100.0  0.1  -999.0  999.0 /
1084 'SEXS' 1  0.1  10.0  100.0  0.1  -999.0  999.0 /
1088 'SEXS' 1  0.1  10.0  100.0  0.1  -999.0  999.0 /
1090 'SEXS' 1  0.1  10.0  100.0  0.1  -999.0  999.0 /
1090 'SEXS' 2  0.1  10.0  100.0  0.1  -999.0  999.0 /
2004 'SEXS' 1  0.1  10.0  100.0  0.1  -999.0  999.0 /
2005 'SEXS' 1  0.1  10.0  100.0  0.1  -999.0  999.0 /
2006 'SEXS' 1  0.1  10.0  100.0  0.1  -999.0  999.0 /
2013 'SEXS' 1  0.1  10.0  100.0  0.1  -999.0  999.0 /
2019 'SEXS' 1  0.1  10.0  100.0  0.1  -999.0  999.0 /
2023 'SEXS' 1  0.1  10.0  100.0  0.1  -999.0  999.0 /
2024 'SEXS' 1  0.1  10.0  100.0  0.1  -999.0  999.0 /
2042 'SEXS' 1  0.1  10.0  100.0  0.1  -999.0  999.0 /
2056 'SEXS' 1  0.1  10.0  100.0  0.1  -999.0  999.0 /
2057 'SEXS' 1  0.1  10.0  100.0  0.1  -999.0  999.0 /
2059 'SEXS' 1  0.1  10.0  100.0  0.1  -999.0  999.0 /
2062 'SEXS' 1  0.1  10.0  100.0  0.1  -999.0  999.0 /
2071 'SEXS' 1  0.1  10.0  100.0  0.1  -999.0  999.0 /
2076 'SEXS' 1  0.1  10.0  100.0  0.1  -999.0  999.0 /
2078 'SEXS' 1  0.1  10.0  100.0  0.1  -999.0  999.0 /
2083 'SEXS' 1  0.1  10.0  100.0  0.1  -999.0  999.0 /
2084 'SEXS' 1  0.1  10.0  100.0  0.1  -999.0  999.0 /
2085 'SEXS' 1  0.1  10.0  100.0  0.1  -999.0  999.0 /
2089 'SEXS' 1  0.1  10.0  100.0  0.1  -999.0  999.0 /
2094 'SEXS' 1  0.1  10.0  100.0  0.1  -999.0  999.0 /
2095 'SEXS' 1  0.1  10.0  100.0  0.1  -999.0  999.0 /
2099 'SEXS' 1  0.1  10.0  100.0  0.1  -999.0  999.0 /
2100 'SEXS' 1  0.1  10.0  100.0  0.1  -999.0  999.0 /
2103 'SEXS' 1  0.1  10.0  100.0  0.1  -999.0  999.0 /
2104 'SEXS' 1  0.1  10.0  100.0  0.1  -999.0  999.0 /
2105 'SEXS' 1  0.1  10.0  100.0  0.1  -999.0  999.0 /
2115 'SEXS' 1  0.1  10.0  100.0  0.1  -999.0  999.0 /
2116 'SEXS' 1  0.1  10.0  100.0  0.1  -999.0  999.0 /
2117 'SEXS' 1  0.1  10.0  100.0  0.1  -999.0  999.0 /
2118 'SEXS' 1  0.1  10.0  100.0  0.1  -999.0  999.0 /
2119 'SEXS' 1  0.1  10.0  100.0  0.1  -999.0  999.0 /
2120 'SEXS' 1  0.1  10.0  100.0  0.1  -999.0  999.0 /
2123 'SEXS' 1  0.1  10.0  100.0  0.1  -999.0  999.0 /
2127 'SEXS' 1  0.1  10.0  100.0  0.1  -999.0  999.0 /
3004 'SEXS' 1  0.1  10.0  100.0  0.1  -999.0  999.0 /
3017 'SEXS' 1  0.1  10.0  100.0  0.1  -999.0  999.0 /
3020 'SEXS' 1  0.1  10.0  100.0  0.1  -999.0  999.0 /
3028 'SEXS' 1  0.1  10.0  100.0  0.1  -999.0  999.0 /
3034 'SEXS' 1  0.1  10.0  100.0  0.1  -999.0  999.0 /
3039 'SEXS' 1  0.1  10.0  100.0  0.1  -999.0  999.0 /
3043 'SEXS' 1  0.1  10.0  100.0  0.1  -999.0  999.0 /
3044 'SEXS' 1  0.1  10.0  100.0  0.1  -999.0  999.0 /
3045 'SEXS' 1  0.1  10.0  100.0  0.1  -999.0  999.0 /
3048 'SEXS' 1  0.1  10.0  100.0  0.1  -999.0  999.0 /
3055 'SEXS' 1  0.1  10.0  100.0  0.1  -999.0  999.0 /
3056 'SEXS' 1  0.1  10.0  100.0  0.1  -999.0  999.0 /
3057 'SEXS' 1  0.1  10.0  100.0  0.1  -999.0  999.0 /
3060 'SEXS' 1  0.1  10.0  100.0  0.1  -999.0  999.0 /
3061 'SEXS' 1  0.1  10.0  100.0  0.1  -999.0  999.0 /
3062 'SEXS' 1  0.1  10.0  100.0  0.1  -999.0  999.0 /
3063 'SEXS' 1  0.1  10.0  100.0  0.1  -999.0  999.0 /
3065 'SEXS' 1  0.1  10.0  100.0  0.1  -999.0  999.0 /
3068 'SEXS' 1  0.1  10.0  100.0  0.1  -999.0  999.0 /
3071 'SEXS' 1  0.1  10.0  100.0  0.1  -999.0  999.0 /
3074 'SEXS' 1  0.1  10.0  100.0  0.1  -999.0  999.0 /
3081 'SEXS' 1  0.1  10.0  100.0  0.1  -999.0  999.0 /
3084 'SEXS' 1  0.1  10.0  100.0  0.1  -999.0  999.0 /
3086 'SEXS' 1  0.1  10.0  100.0  0.1  -999.0  999.0 /
3087 'SEXS' 1  0.1  10.0  100.0  0.1  -999.0  999.0 /
3092 'SEXS' 1  0.1  10.0  100.0  0.1  -999.0  999.0 /
3095 'SEXS' 1  0.1  10.0  100.0  0.1  -999.0  999.0 /
3098 'SEXS' 1  0.1  10.0  100.0  0.1  -999.0  999.0 /
3105 'SEXS' 1  0.1  10.0  100.0  0.1  -999.0  999.0 /
3106 'SEXS' 1  0.1  10.0  100.0  0.1  -999.0  999.0 /
3110 'SEXS' 1  0.1  10.0  100.0  0.1  -999.0  999.0 /
3112 'SEXS' 1  0.1  10.0  100.0  0.1  -999.0  999.0 /
3113 'SEXS' 1  0.1  10.0  100.0  0.1  -999.0  999.0 /
3117 'SEXS' 1  0.1  10.0  100.0  0.1  -999.0  999.0 /
3118 'SEXS' 1  0.1  10.0  100.0  0.1  -999.0  999.0 /
3120 'SEXS' 1  0.1  10.0  100.0  0.1  -999.0  999.0 /
3122 'SEXS' 1  0.1  10.0  100.0  0.1  -999.0  999.0 /
3127 'SEXS' 1  0.1  10.0  100.0  0.1  -999.0  999.0 /
3129 'SEXS' 1  0.1  10.0  100.0  0.1  -999.0  999.0 /
3131 'SEXS' 1  0.1  10.0  100.0  0.1  -999.0  999.0 /
3133 'SEXS' 1  0.1  10.0  100.0  0.1  -999.0  999.0 /
3133 'SEXS' 2  0.1  10.0  100.0  0.1  -999.0  999.0 /
3133 'SEXS' 3  0.1  10.0  100.0  0.1  -999.0  999.0 /
3137 'SEXS' 1  0.1  10.0  100.0  0.1  -999.0  999.0 /
3141 'SEXS' 1  0.1  10.0  100.0  0.1  -999.0  999.0 /
4010 'SEXS' 1  0.1  10.0  100.0  0.1  -999.0  999.0 /
4026 'SEXS' 1  0.1  10.0  100.0  0.1  -999.0  999.0 /
4030 'SEXS' 1  0.1  10.0  100.0  0.1  -999.0  999.0 /
4045 'SEXS' 1  0.1  10.0  100.0  0.1  -999.0  999.0 /
4046 'SEXS' 1  0.1  10.0  100.0  0.1  -999.0  999.0 /
4047 'SEXS' 1  0.1  10.0  100.0  0.1  -999.0  999.0 /
4050 'SEXS' 1  0.1  10.0  100.0  0.1  -999.0  999.0 /
4052 'SEXS' 1  0.1  10.0  100.0  0.1  -999.0  999.0 /
4058 'SEXS' 1  0.1  10.0  100.0  0.1  -999.0  999.0 /
4059 'SEXS' 1  0.1  10.0  100.0  0.1  -999.0  999.0 /
4060 'SEXS' 1  0.1  10.0  100.0  0.1  -999.0  999.0 /
4061 'SEXS' 1  0.1  10.0  100.0  0.1  -999.0  999.0 /
4062 'SEXS' 1  0.1  10.0  100.0  0.1  -999.0  999.0 /
4063 'SEXS' 1  0.1  10.0  100.0  0.1  -999.0  999.0 /
4065 'SEXS' 1  0.1  10.0  100.0  0.1  -999.0  999.0 /
4075 'SEXS' 1  0.1  10.0  100.0  0.1  -999.0  999.0 /
4076 'SEXS' 1  0.1  10.0  100.0  0.1  -999.0  999.0 /
4077 'SEXS' 1  0.1  10.0  100.0  0.1  -999.0  999.0 /
4082 'SEXS' 1  0.1  10.0  100.0  0.1  -999.0  999.0 /
4083 'SEXS' 1  0.1  10.0  100.0  0.1  -999.0  999.0 /
4084 'SEXS' 1  0.1  10.0  100.0  0.1  -999.0  999.0 /
4085 'SEXS' 1  0.1  10.0  100.0  0.1  -999.0  999.0 /
4090 'SEXS' 1  0.1  10.0  100.0  0.1  -999.0  999.0 /
4091 'SEXS' 1  0.1  10.0  100.0  0.1  -999.0  999.0 /
4092 'SEXS' 1  0.1  10.0  100.0  0.1  -999.0  999.0 /
4093 'SEXS' 1  0.1  10.0  100.0  0.1  -999.0  999.0 /
4094 'SEXS' 1  0.1  10.0  100.0  0.1  -999.0  999.0 /
4095 'SEXS' 1  0.1  10.0  100.0  0.1  -999.0  999.0 /
4096 'SEXS' 1  0.1  10.0  100.0  0.1  -999.0  999.0 /
4097 'SEXS' 1  0.1  10.0  100.0  0.1  -999.0  999.0 /
4098 'SEXS' 1  0.1  10.0  100.0  0.1  -999.0  999.0 /
4105 'SEXS' 1  0.1  10.0  100.0  0.1  -999.0  999.0 /
4115 'SEXS' 1  0.1  10.0  100.0  0.1  -999.0  999.0 /
4116 'SEXS' 1  0.1  10.0  100.0  0.1  -999.0  999.0 /
4133 'SEXS' 1  0.1  10.0  100.0  0.1  -999.0  999.0 /
4134 'SEXS' 1  0.1  10.0  100.0  0.1  -999.0  999.0 /
4135 'SEXS' 1  0.1  10.0  100.0  0.1  -999.0  999.0 /
4136 'SEXS' 1  0.1  10.0  100.0  0.1  -999.0  999.0 /
4137 'SEXS' 1  0.1  10.0  100.0  0.1  -999.0  999.0 /
4138 'SEXS' 1  0.1  10.0  100.0  0.1  -999.0  999.0 /
4142 'SEXS' 1  0.1  10.0  100.0  0.1  -999.0  999.0 /
4153 'SEXS' 1  0.1  10.0  100.0  0.1  -999.0  999.0 /
4160 'SEXS' 1  0.1  10.0  100.0  0.1  -999.0  999.0 /
4161 'SEXS' 1  0.1  10.0  100.0  0.1  -999.0  999.0 /
4162 'SEXS' 1  0.1  10.0  100.0  0.1  -999.0  999.0 /
4163 'SEXS' 1  0.1  10.0  100.0  0.1  -999.0  999.0 /
4166 'SEXS' 1  0.1  10.0  100.0  0.1  -999.0  999.0 /
4177 'SEXS' 1  0.1  10.0  100.0  0.1  -999.0  999.0 /
4181 'SEXS' 1  0.1  10.0  100.0  0.1  -999.0  999.0 /
4183 'SEXS' 1  0.1  10.0  100.0  0.1  -999.0  999.0 /
4192 'SEXS' 1  0.1  10.0  100.0  0.1  -999.0  999.0 /
4192 'SEXS' 10  0.1  10.0  100.0  0.1  -999.0  999.0 /
4192 'SEXS' 2  0.1  10.0  100.0  0.1  -999.0  999.0 /
4192 'SEXS' 3  0.1  10.0  100.0  0.1  -999.0  999.0 /
4192 'SEXS' 4  0.1  10.0  100.0  0.1  -999.0  999.0 /
4192 'SEXS' 5  0.1  10.0  100.0  0.1  -999.0  999.0 /
4192 'SEXS' 6  0.1  10.0  100.0  0.1  -999.0  999.0 /
4192 'SEXS' 7  0.1  10.0  100.0  0.1  -999.0  999.0 /
4192 'SEXS' 8  0.1  10.0  100.0  0.1  -999.0  999.0 /
4192 'SEXS' 9  0.1  10.0  100.0  0.1  -999.0  999.0 /
5002 'SEXS' 1  0.1  10.0  100.0  0.1  -999.0  999.0 /
5020 'SEXS' 1  0.1  10.0  100.0  0.1  -999.0  999.0 /
5023 'SEXS' 1  0.1  10.0  100.0  0.1  -999.0  999.0 /
5035 'SEXS' 1  0.1  10.0  100.0  0.1  -999.0  999.0 /
5036 'SEXS' 1  0.1  10.0  100.0  0.1  -999.0  999.0 /
5037 'SEXS' 1  0.1  10.0  100.0  0.1  -999.0  999.0 /
5038 'SEXS' 1  0.1  10.0  100.0  0.1  -999.0  999.0 /
5039 'SEXS' 1  0.1  10.0  100.0  0.1  -999.0  999.0 /
5040 'SEXS' 1  0.1  10.0  100.0  0.1  -999.0  999.0 /
5041 'SEXS' 1  0.1  10.0  100.0  0.1  -999.0  999.0 /
5042 'SEXS' 1  0.1  10.0  100.0  0.1  -999.0  999.0 /
5051 'SEXS' 1  0.1  10.0  100.0  0.1  -999.0  999.0 /
5052 'SEXS' 1  0.1  10.0  100.0  0.1  -999.0  999.0 /
5057 'SEXS' 1  0.1  10.0  100.0  0.1  -999.0  999.0 /
5058 'SEXS' 1  0.1  10.0  100.0  0.1  -999.0  999.0 /
5065 'SEXS' 1  0.1  10.0  100.0  0.1  -999.0  999.0 /
5066 'SEXS' 1  0.1  10.0  100.0  0.1  -999.0  999.0 /
5067 'SEXS' 1  0.1  10.0  100.0  0.1  -999.0  999.0 /
5068 'SEXS' 1  0.1  10.0  100.0  0.1  -999.0  999.0 /
5069 'SEXS' 1  0.1  10.0  100.0  0.1  -999.0  999.0 /
5089 'SEXS' 1  0.1  10.0  100.0  0.1  -999.0  999.0 /
5106 'SEXS' 1  0.1  10.0  100.0  0.1  -999.0  999.0 /
5107 'SEXS' 1  0.1  10.0  100.0  0.1  -999.0  999.0 /
5166 'SEXS' 1  0.1  10.0  100.0  0.1  -999.0  999.0 /
5167 'SEXS' 1  0.1  10.0  100.0  0.1  -999.0  999.0 /
5170 'SEXS' 1  0.1  10.0  100.0  0.1  -999.0  999.0 /
5198 'SEXS' 1  0.1  10.0  100.0  0.1  -999.0  999.0 /
5206 'SEXS' 1  0.1  10.0  100.0  0.1  -999.0  999.0 /
5207 'SEXS' 1  0.1  10.0  100.0  0.1  -999.0  999.0 /
5208 'SEXS' 1  0.1  10.0  100.0  0.1  -999.0  999.0 /
5238 'SEXS' 1  0.1  10.0  100.0  0.1  -999.0  999.0 /
5243 'SEXS' 1  0.1  10.0  100.0  0.1  -999.0  999.0 /
5262 'SEXS' 1  0.1  10.0  100.0  0.1  -999.0  999.0 /
5263 'SEXS' 1  0.1  10.0  100.0  0.1  -999.0  999.0 /
5281 'SEXS' 1  0.1  10.0  100.0  0.1  -999.0  999.0 /
5282 'SEXS' 1  0.1  10.0  100.0  0.1  -999.0  999.0 /
5283 'SEXS' 1  0.1  10.0  100.0  0.1  -999.0  999.0 /
5297 'SEXS' 1  0.1  10.0  100.0  0.1  -999.0  999.0 /
5298 'SEXS' 1  0.1  10.0  100.0  0.1  -999.0  999.0 /
5299 'SEXS' 1  0.1  10.0  100.0  0.1  -999.0  999.0 /
5300 'SEXS' 1  0.1  10.0  100.0  0.1  -999.0  999.0 /
5301 'SEXS' 1  0.1  10.0  100.0  0.1  -999.0  999.0 /
5302 'SEXS' 1  0.1  10.0  100.0  0.1  -999.0  999.0 /
5303 'SEXS' 1  0.1  10.0  100.0  0.1  -999.0  999.0 /
5319 'SEXS' 1  0.1  10.0  100.0  0.1  -999.0  999.0 /
5320 'SEXS' 1  0.1  10.0  100.0  0.1  -999.0  999.0 /
5321 'SEXS' 1  0.1  10.0  100.0  0.1  -999.0  999.0 /
5324 'SEXS' 1  0.1  10.0  100.0  0.1  -999.0  999.0 /
5325 'SEXS' 1  0.1  10.0  100.0  0.1  -999.0  999.0 /
5326 'SEXS' 1  0.1  10.0  100.0  0.1  -999.0  999.0 /
5342 'SEXS' 1  0.1  10.0  100.0  0.1  -999.0  999.0 /
5343 'SEXS' 1  0.1  10.0  100.0  0.1  -999.0  999.0 /
5360 'SEXS' 1  0.1  10.0  100.0  0.1  -999.0  999.0 /
5363 'SEXS' 1  0.1  10.0  100.0  0.1  -999.0  999.0 /
5364 'SEXS' 1  0.1  10.0  100.0  0.1  -999.0  999.0 /
5365 'SEXS' 1  0.1  10.0  100.0  0.1  -999.0  999.0 /
5366 'SEXS' 1  0.1  10.0  100.0  0.1  -999.0  999.0 /
5367 'SEXS' 1  0.1  10.0  100.0  0.1  -999.0  999.0 /
5368 'SEXS' 1  0.1  10.0  100.0  0.1  -999.0  999.0 /
5369 'SEXS' 1  0.1  10.0  100.0  0.1  -999.0  999.0 /
5382 'SEXS' 1  0.1  10.0  100.0  0.1  -999.0  999.0 /
5383 'SEXS' 1  0.1  10.0  100.0  0.1  -999.0  999.0 /
5399 'SEXS' 1  0.1  10.0  100.0  0.1  -999.0  999.0 /
5403 'SEXS' 1  0.1  10.0  100.0  0.1  -999.0  999.0 /
5404 'SEXS' 1  0.1  10.0  100.0  0.1  -999.0  999.0 /
5405 'SEXS' 1  0.1  10.0  100.0  0.1  -999.0  999.0 /
5406 'SEXS' 1  0.1  10.0  100.0  0.1  -999.0  999.0 /
5415 'SEXS' 1  0.1  10.0  100.0  0.1  -999.0  999.0 /
5416 'SEXS' 1  0.1  10.0  100.0  0.1  -999.0  999.0 /
5417 'SEXS' 1  0.1  10.0  100.0  0.1  -999.0  999.0 /
5418 'SEXS' 1  0.1  10.0  100.0  0.1  -999.0  999.0 /
5419 'SEXS' 1  0.1  10.0  100.0  0.1  -999.0  999.0 /
5423 'SEXS' 1  0.1  10.0  100.0  0.1  -999.0  999.0 /
5424 'SEXS' 1  0.1  10.0  100.0  0.1  -999.0  999.0 /
5444 'SEXS' 1  0.1  10.0  100.0  0.1  -999.0  999.0 /
5444 'SEXS' 2  0.1  10.0  100.0  0.1  -999.0  999.0 /
5444 'SEXS' 3  0.1  10.0  100.0  0.1  -999.0  999.0 /
5444 'SEXS' 4  0.1  10.0  100.0  0.1  -999.0  999.0 /
5444 'SEXS' 5  0.1  10.0  100.0  0.1  -999.0  999.0 /
5444 'SEXS' 6  0.1  10.0  100.0  0.1  -999.0  999.0 /
5444 'SEXS' 7  0.1  10.0  100.0  0.1  -999.0  999.0 /
5444 'SEXS' 8  0.1  10.0  100.0  0.1  -999.0  999.0 /
6006 'SEXS' 1  0.1  10.0  100.0  0.1  -999.0  999.0 /
6007 'SEXS' 1  0.1  10.0  100.0  0.1  -999.0  999.0 /
6008 'SEXS' 1  0.1  10.0  100.0  0.1  -999.0  999.0 /
6009 'SEXS' 1  0.1  10.0  100.0  0.1  -999.0  999.0 /
6010 'SEXS' 1  0.1  10.0  100.0  0.1  -999.0  999.0 /
6041 'SEXS' 1  0.1  10.0  100.0  0.1  -999.0  999.0 /
6042 'SEXS' 1  0.1  10.0  100.0  0.1  -999.0  999.0 /
6048 'SEXS' 1  0.1  10.0  100.0  0.1  -999.0  999.0 /
6049 'SEXS' 1  0.1  10.0  100.0  0.1  -999.0  999.0 /
6050 'SEXS' 1  0.1  10.0  100.0  0.1  -999.0  999.0 /