0,   100.00, 33, 0, 0, 60.00     / PSS(R)E 33 RAW created by rawd33  SUN, NOV 02 2025  14:54
THIS IS A SYNTHETIC POWER SYSTEM MODEL THAT DOES NOT REPRESE
REFERENCE: A.B. BIRCHFIELD, T. XU, K.M. GEGNER, K.S. SHETYE,
  1001,'ODESSA 2 0  ', 115.0000,1,   1,   1,   1,0.97930,  -3.1691,1.10000,0.90000,1.10000,0.90000
  1002,'PRESIDIO 2 0', 115.0000,1,   1,   1,   1,1.02524, -11.2273,1.10000,0.90000,1.10000,0.90000
  1003,'O DONNELL ~1', 115.0000,1,   1,   1,   1,0.99659, -30.8014,1.10000,0.90000,1.10000,0.90000
  1004,'O DONNELL ~2', 230.0000,2,   1,   1,   1,1.01000, -34.5261,1.10000,0.90000,1.10000,0.90000
  1005,'BIG SPRING~8', 115.0000,1,   1,   1,   1,0.99617, -14.1302,1.10000,0.90000,1.10000,0.90000
  1006,'BIG SPRING~9',  13.8000,2,   1,   1,   1,1.00000, -11.9607,1.10000,0.90000,1.10000,0.90000
  1007,'VAN HORN 0  ', 115.0000,1,   1,   1,   1,1.02781, -10.6421,1.10000,0.90000,1.10000,0.90000
  1008,'IRAAN 2 0   ', 115.0000,1,   1,   1,   1,1.01789,  -5.5112,1.10000,0.90000,1.10000,0.90000
  1009,'IRAAN 2 1   ',  13.8000,2,   1,   1,   1,1.00783,  -2.2062,1.10000,0.90000,1.10000,0.90000
  1010,'PRESIDIO 1 0', 115.0000,1,   1,   1,   1,1.03239, -10.2646,1.10000,0.90000,1.10000,0.90000
  1011,'PRESIDIO 1 1',  22.0000,2,   1,   1,   1,1.03265,  -8.9561,1.10000,0.90000,1.10000,0.90000
  1012,'SANDERSON 0 ', 115.0000,1,   1,   1,   1,1.01892, -25.4787,1.10000,0.90000,1.10000,0.90000
  1013,'MONAHANS 2 0', 115.0000,1,   1,   1,   1,1.00146,  -5.3245,1.10000,0.90000,1.10000,0.90000
  1014,'GRANDFALLS 0', 115.0000,1,   1,   1,   1,1.00990,  -3.8565,1.10000,0.90000,1.10000,0.90000
  1015,'MARFA 0     ', 115.0000,1,   1,   1,   1,1.03247, -11.1150,1.10000,0.90000,1.10000,0.90000
  1016,'GARDEN CIT~1', 115.0000,1,   1,   1,   1,1.01556, -12.3361,1.10000,0.90000,1.10000,0.90000
  1017,'ODESSA 4 0  ', 115.0000,1,   1,   1,   1,0.97935,  -6.6919,1.10000,0.90000,1.10000,0.90000
  1018,'NOTREES 0   ', 115.0000,1,   1,   1,   1,0.98853,  -5.9199,1.10000,0.90000,1.10000,0.90000
  1019,'MIDLAND 4 0 ', 115.0000,1,   1,   1,   1,0.99904,  -3.9793,1.10000,0.90000,1.10000,0.90000
  1020,'BIG SPRING~1', 115.0000,1,   1,   1,   1,1.00372, -14.1825,1.10000,0.90000,1.10000,0.90000
  1021,'BIG SPRING~2',  13.8000,2,   1,   1,   1,1.00000,  -7.4908,1.10000,0.90000,1.10000,0.90000
  1022,'O DONNELL ~3', 115.0000,1,   1,   1,   1,1.00144, -30.3397,1.10000,0.90000,1.10000,0.90000
  1023,'O DONNELL ~4',  13.8000,2,   1,   1,   1,1.01000, -21.3661,1.10000,0.90000,1.10000,0.90000
  1024,'ODESSA 6 0  ', 115.0000,1,   1,   1,   1,0.99277,  -5.2381,1.10000,0.90000,1.10000,0.90000
  1025,'BIG SPRIN~14', 115.0000,1,   1,   1,   1,1.00381, -12.8486,1.10000,0.90000,1.10000,0.90000
  1026,'BIG SPRIN~15',  13.8000,2,   1,   1,   1,1.00000,  -3.2171,1.10000,0.90000,1.10000,0.90000
  1027,'MIDLAND 2 0 ', 115.0000,1,   1,   1,   1,0.99194, -14.9724,1.10000,0.90000,1.10000,0.90000
  1028,'COAHOMA 0   ', 115.0000,1,   1,   1,   1,1.00570, -32.8151,1.10000,0.90000,1.10000,0.90000
  1029,'MIDLAND 3 0 ', 115.0000,1,   1,   1,   1,0.99127, -15.1094,1.10000,0.90000,1.10000,0.90000
  1030,'ALPINE 0    ', 115.0000,1,   1,   1,   1,1.01766,  -7.8097,1.10000,0.90000,1.10000,0.90000
  1031,'FORT DAVIS 0', 115.0000,1,   1,   1,   1,1.01330,  -8.7163,1.10000,0.90000,1.10000,0.90000
  1032,'MCCAMEY 1 0 ', 115.0000,1,   1,   1,   1,0.99558,  -7.8108,1.10000,0.90000,1.10000,0.90000
  1033,'MCCAMEY 1 1 ', 230.0000,2,   1,   1,   1,1.00000, -11.8416,1.10000,0.90000,1.10000,0.90000
  1034,'BIG SPRING~6', 115.0000,1,   1,   1,   1,1.00221, -11.4038,1.10000,0.90000,1.10000,0.90000
  1035,'BIG SPRING~7',  13.8000,2,   1,   1,   1,1.00000,  -8.1131,1.10000,0.90000,1.10000,0.90000
  1036,'CRANE 0     ', 115.0000,1,   1,   1,   1,0.99509,  -8.3548,1.10000,0.90000,1.10000,0.90000
  1037,'ODESSA 5 0  ', 115.0000,1,   1,   1,   1,0.97459,  -5.4501,1.10000,0.90000,1.10000,0.90000
  1038,'FORT STOCK~1', 115.0000,1,   1,   1,   1,1.01663,  -2.9248,1.10000,0.90000,1.10000,0.90000
  1039,'FORT STOCK~2',  22.0000,2,   1,   1,   1,1.00000,   2.4582,1.10000,0.90000,1.10000,0.90000
  1040,'ANDREWS 0   ', 115.0000,1,   1,   1,   1,0.99393,  -5.0169,1.10000,0.90000,1.10000,0.90000
  1041,'FORSAN 0    ', 115.0000,1,   1,   1,   1,0.99875, -11.9673,1.10000,0.90000,1.10000,0.90000
  1042,'FORSAN 1    ',  13.8000,2,   1,   1,   1,0.99875, -11.9673,1.10000,0.90000,1.10000,0.90000
  1043,'FORSAN 2    ',  13.8000,2,   1,   1,   1,1.00000,  -8.7182,1.10000,0.90000,1.10000,0.90000
  1044,'BIG LAKE 0  ', 115.0000,1,   1,   1,   1,0.98009, -28.5262,1.10000,0.90000,1.10000,0.90000
  1045,'MIDLAND 5 0 ', 115.0000,1,   1,   1,   1,0.97220,  -6.9844,1.10000,0.90000,1.10000,0.90000
  1046,'OZONA 0     ', 115.0000,1,   1,   1,   1,1.01068, -23.7178,1.10000,0.90000,1.10000,0.90000
  1047,'MONAHANS 1 0', 115.0000,1,   1,   1,   1,1.00045,  -3.1394,1.10000,0.90000,1.10000,0.90000
  1048,'MONAHANS 1 1',  18.0000,2,   1,   1,   1,1.00045,  -3.1394,1.10000,0.90000,1.10000,0.90000
  1049,'MONAHANS 1 2',  18.0000,2,   1,   1,   1,1.00045,  -3.1394,1.10000,0.90000,1.10000,0.90000
  1050,'MONAHANS 1 3',  18.0000,2,   1,   1,   1,1.00000,   1.9558,1.10000,0.90000,1.10000,0.90000
  1051,'MONAHANS 1 4',  18.0000,2,   1,   1,   1,1.00000,   3.4411,1.10000,0.90000,1.10000,0.90000
  1052,'MONAHANS 1 5',  18.0000,2,   1,   1,   1,1.00000,   1.0961,1.10000,0.90000,1.10000,0.90000
  1053,'MONAHANS 1 6', 230.0000,2,   1,   1,   1,1.00051,  -9.7613,1.10000,0.90000,1.10000,0.90000
  1054,'STANTON 0   ', 115.0000,1,   1,   1,   1,0.99675, -20.1420,1.10000,0.90000,1.10000,0.90000
  1055,'ODONNELL 0  ', 115.0000,1,   1,   1,   1,0.98888, -30.2848,1.10000,0.90000,1.10000,0.90000
  1056,'LENORAH 0   ', 115.0000,1,   1,   1,   1,1.01211, -15.9083,1.10000,0.90000,1.10000,0.90000
  1057,'LENORAH 1   ',  18.0000,2,   1,   1,   1,1.01211, -15.9083,1.10000,0.90000,1.10000,0.90000
  1058,'IRAAN 3 0   ', 115.0000,1,   1,   1,   1,1.02373,  -9.1624,1.10000,0.90000,1.10000,0.90000
  1059,'IRAAN 3 1   ',  22.0000,2,   1,   1,   1,1.02373,  -9.1624,1.10000,0.90000,1.10000,0.90000
  1060,'IRAAN 3 2   ',  22.0000,2,   1,   1,   1,1.02373,  -9.1624,1.10000,0.90000,1.10000,0.90000
  1061,'BIG SPRIN~10', 115.0000,1,   1,   1,   1,0.99486, -15.5802,1.10000,0.90000,1.10000,0.90000
  1062,'BIG SPRIN~11',  13.8000,2,   1,   1,   1,0.99486, -15.5802,1.10000,0.90000,1.10000,0.90000
  1063,'BIG SPRIN~12',  13.8000,2,   1,   1,   1,0.99486, -15.5802,1.10000,0.90000,1.10000,0.90000
  1064,'ODESSA 3 0  ', 115.0000,1,   1,   1,   1,0.96985,  -5.2599,1.10000,0.90000,1.10000,0.90000
  1065,'BIG SPRING~4', 115.0000,1,   1,   1,   1,1.00152, -11.3797,1.10000,0.90000,1.10000,0.90000
  1066,'BIG SPRING~5',  13.8000,2,   1,   1,   1,1.00000,  -3.8324,1.10000,0.90000,1.10000,0.90000
  1067,'BIG SPRIN~13', 115.0000,1,   1,   1,   1,0.99476, -12.8673,1.10000,0.90000,1.10000,0.90000
  1068,'MIDLAND 1 0 ', 115.0000,1,   1,   1,   1,0.98559, -12.9435,1.10000,0.90000,1.10000,0.90000
  1069,'IRAAN 1 0   ', 115.0000,1,   1,   1,   1,1.02320,  -6.0520,1.10000,0.90000,1.10000,0.90000
  1070,'IRAAN 1 1   ',  13.8000,2,   1,   1,   1,1.04000,  -1.5497,1.10000,0.90000,1.10000,0.90000
  1071,'ODESSA 1 0  ', 115.0000,1,   1,   1,   1,0.98908,  -1.3965,1.10000,0.90000,1.10000,0.90000
  1072,'ODESSA 1 1  ',  18.0000,2,   1,   1,   1,1.01000,   7.9819,1.10000,0.90000,1.10000,0.90000
  1073,'ODESSA 1 2  ',  18.0000,2,   1,   1,   1,1.01000,  14.4116,1.10000,0.90000,1.10000,0.90000
  1074,'ODESSA 1 3  ',  18.0000,2,   1,   1,   1,1.01000,  12.3553,1.10000,0.90000,1.10000,0.90000
  1075,'ODESSA 1 4  ',  18.0000,2,   1,   1,   1,1.01000,   9.5846,1.10000,0.90000,1.10000,0.90000
  1076,'ODESSA 1 5  ',  18.0000,2,   1,   1,   1,0.98908,  -1.3965,1.10000,0.90000,1.10000,0.90000
  1077,'ODESSA 1 6  ',  18.0000,2,   1,   1,   1,0.98908,  -1.3965,1.10000,0.90000,1.10000,0.90000
  1078,'ODESSA 1 7  ',  18.0000,2,   1,   1,   1,1.01000,   9.0639,1.10000,0.90000,1.10000,0.90000
  1079,'ODESSA 1 8  ',  18.0000,2,   1,   1,   1,1.01000,   3.2627,1.10000,0.90000,1.10000,0.90000
  1080,'ODESSA 1 9  ',  18.0000,2,   1,   1,   1,1.01000,   9.6442,1.10000,0.90000,1.10000,0.90000
  1081,'ODESSA 1 10 ', 230.0000,2,   1,   1,   1,0.99978, -12.0227,1.10000,0.90000,1.10000,0.90000
  1082,'FORT STOCK~3', 115.0000,2,   1,   1,   1,1.01937,  -1.8915,1.10000,0.90000,1.10000,0.90000
  1083,'FORT STOCK~4', 115.0000,1,   1,   1,   1,1.01918,  -4.4410,1.10000,0.90000,1.10000,0.90000
  1084,'BIG SPRING~3', 115.0000,2,   1,   1,   1,1.00489, -11.9076,1.10000,0.90000,1.10000,0.90000
  1085,'KERMIT 0    ', 115.0000,1,   1,   1,   1,1.00561,  -4.1935,1.10000,0.90000,1.10000,0.90000
  1086,'PECOS 0     ', 115.0000,1,   1,   1,   1,1.01217,  -6.8843,1.10000,0.90000,1.10000,0.90000
  1087,'SHEFFIELD 0 ', 115.0000,1,   1,   1,   1,1.03560, -15.3085,1.10000,0.90000,1.10000,0.90000
  1088,'MCCAMEY 2 0 ', 115.0000,2,   1,   1,   1,1.00000,  -8.0018,1.10000,0.90000,1.10000,0.90000
  1089,'LAMESA 0    ', 115.0000,1,   1,   1,   1,0.96679, -28.2952,1.10000,0.90000,1.10000,0.90000
  1090,'GOLDSMITH 0 ', 115.0000,2,   1,   1,   1,1.01850,  -2.4941,1.10000,0.90000,1.10000,0.90000
  1091,'RALLS 2 0   ', 161.0000,1,   1,   1,   1,1.02728, -49.5303,1.10000,0.90000,1.10000,0.90000
  2001,'PARIS 3 0   ', 161.0000,1,   2,   1,   1,1.00316, -84.1720,1.10000,0.90000,1.10000,0.90000
  2002,'SAVOY 0     ', 500.0000,1,   2,   1,   1,1.01233, -85.6719,1.10000,0.90000,1.10000,0.90000
  2003,'SAVOY 1     ', 161.0000,1,   2,   1,   1,1.01294, -87.9211,1.10000,0.90000,1.10000,0.90000
  2004,'SAVOY 2     ',  13.8000,2,   2,   1,   1,1.01233, -85.6719,1.10000,0.90000,1.10000,0.90000
  2005,'SAVOY 3     ',  13.8000,2,   2,   1,   1,1.01233, -85.6719,1.10000,0.90000,1.10000,0.90000
  2006,'SAVOY 4     ',  13.8000,2,   2,   1,   1,1.01233, -85.6719,1.10000,0.90000,1.10000,0.90000
  2007,'HONEY GROV~1', 161.0000,1,   2,   1,   1,1.00424, -83.9414,1.10000,0.90000,1.10000,0.90000
  2008,'MEMPHIS 0   ', 161.0000,1,   2,   1,   1,1.02309, -52.3145,1.10000,0.90000,1.10000,0.90000
  2009,'IOWA PARK 0 ', 161.0000,1,   2,   1,   1,1.00871, -64.9931,1.10000,0.90000,1.10000,0.90000
  2010,'VERNON 2 0  ', 161.0000,1,   2,   1,   1,1.01051, -54.8154,1.10000,0.90000,1.10000,0.90000
  2011,'PANHANDLE ~2', 500.0000,1,   2,   1,   1,1.04623, -52.1775,1.10000,0.90000,1.10000,0.90000
  2012,'PANHANDLE ~3', 161.0000,1,   2,   1,   1,1.03575, -49.8696,1.10000,0.90000,1.10000,0.90000
  2013,'PANHANDLE ~4',  18.0000,2,   2,   1,   1,1.03795, -49.8710,1.10000,0.90000,1.10000,0.90000
  2014,'CHILDRESS 0 ', 161.0000,1,   2,   1,   1,1.02011, -52.6050,1.10000,0.90000,1.10000,0.90000
  2015,'FORESTBURG 0', 161.0000,1,   2,   1,   1,0.99361, -86.0571,1.10000,0.90000,1.10000,0.90000
  2016,'SHERMAN 3 0 ', 161.0000,1,   2,   1,   1,1.02659, -94.0983,1.10000,0.90000,1.10000,0.90000
  2017,'PANHANDLE ~7', 500.0000,1,   2,   1,   1,1.04497, -52.0700,1.10000,0.90000,1.10000,0.90000
  2018,'PANHANDLE ~8', 161.0000,1,   2,   1,   1,1.04058, -51.3638,1.10000,0.90000,1.10000,0.90000
  2019,'PANHANDLE ~9',  20.0000,2,   2,   1,   1,1.04497, -52.0700,1.10000,0.90000,1.10000,0.90000
  2020,'WICHITA F~12', 161.0000,1,   2,   1,   1,0.98792, -64.8184,1.10000,0.90000,1.10000,0.90000
  2021,'PARIS 2 0   ', 500.0000,1,   2,   1,   1,1.01499, -80.9153,1.10000,0.90000,1.10000,0.90000
  2022,'PARIS 2 1   ', 161.0000,1,   2,   1,   1,1.01133, -82.8343,1.10000,0.90000,1.10000,0.90000
  2023,'PARIS 2 2   ',  13.8000,2,   2,   1,   1,1.02000, -79.3486,1.10000,0.90000,1.10000,0.90000
  2024,'PARIS 2 3   ',  13.8000,2,   2,   1,   1,1.02000, -78.6819,1.10000,0.90000,1.10000,0.90000
  2025,'WICHITA F~10', 161.0000,1,   2,   1,   1,0.98778, -63.9641,1.10000,0.90000,1.10000,0.90000
  2026,'WHEELER 0   ', 161.0000,1,   2,   1,   1,1.03411, -51.1459,1.10000,0.90000,1.10000,0.90000
  2027,'DEPORT 0    ', 161.0000,1,   2,   1,   1,1.00369, -84.5980,1.10000,0.90000,1.10000,0.90000
  2028,'WICHITA FA~9', 161.0000,1,   2,   1,   1,0.98487, -67.4519,1.10000,0.90000,1.10000,0.90000
  2029,'SILVERTON 0 ', 161.0000,1,   2,   1,   1,1.02459, -51.7610,1.10000,0.90000,1.10000,0.90000
  2030,'BONHAM 0    ', 161.0000,1,   2,   1,   1,0.99091, -88.1705,1.10000,0.90000,1.10000,0.90000
  2031,'MATADOR 0   ', 161.0000,1,   2,   1,   1,1.01110, -47.1741,1.10000,0.90000,1.10000,0.90000
  2032,'ARTHUR CIT~1', 161.0000,1,   2,   1,   1,1.00617, -83.3434,1.10000,0.90000,1.10000,0.90000
  2033,'LEONARD 0   ', 161.0000,1,   2,   1,   1,0.99346, -89.6395,1.10000,0.90000,1.10000,0.90000
  2034,'GORDONVILL~1', 161.0000,1,   2,   1,   1,1.01998, -93.3916,1.10000,0.90000,1.10000,0.90000
  2035,'KNOX CITY 0 ', 161.0000,1,   2,   1,   1,1.00088, -47.8671,1.10000,0.90000,1.10000,0.90000
  2036,'WICHITA F~13', 161.0000,1,   2,   1,   1,0.99154, -64.3282,1.10000,0.90000,1.10000,0.90000
  2037,'LINDSAY 0   ', 161.0000,1,   2,   1,   1,1.00313, -86.4562,1.10000,0.90000,1.10000,0.90000
  2038,'ECTOR 0     ', 161.0000,1,   2,   1,   1,1.00978, -88.3892,1.10000,0.90000,1.10000,0.90000
  2039,'SUNSET 0    ', 161.0000,1,   2,   1,   1,0.98177, -83.2256,1.10000,0.90000,1.10000,0.90000
  2040,'CLARKSVILL~1', 161.0000,1,   2,   1,   1,1.00886, -83.5041,1.10000,0.90000,1.10000,0.90000
  2041,'PANHANDLE ~5', 161.0000,1,   2,   1,   1,1.03660, -47.7340,1.10000,0.90000,1.10000,0.90000
  2042,'PANHANDLE ~6',  18.0000,2,   2,   1,   1,1.02809, -45.2017,1.10000,0.90000,1.10000,0.90000
  2043,'SADLER 0    ', 161.0000,1,   2,   1,   1,1.02258, -93.7133,1.10000,0.90000,1.10000,0.90000
  2044,'WHITESBORO 0', 161.0000,1,   2,   1,   1,0.99839, -88.8054,1.10000,0.90000,1.10000,0.90000
  2045,'SHEPPARD A~1', 161.0000,1,   2,   1,   1,0.98665, -65.4117,1.10000,0.90000,1.10000,0.90000
  2046,'POTTSBORO 0 ', 161.0000,1,   2,   1,   1,1.01759, -92.9890,1.10000,0.90000,1.10000,0.90000
  2047,'BELLS 0     ', 161.0000,1,   2,   1,   1,1.01275, -88.8224,1.10000,0.90000,1.10000,0.90000
  2048,'CROSBYTON 0 ', 161.0000,1,   2,   1,   1,1.01909, -49.8265,1.10000,0.90000,1.10000,0.90000
  2049,'ELECTRA 0   ', 161.0000,1,   2,   1,   1,1.00975, -60.3058,1.10000,0.90000,1.10000,0.90000
  2050,'PATTONVILL~1', 161.0000,1,   2,   1,   1,0.99618, -87.3801,1.10000,0.90000,1.10000,0.90000
  2051,'HENRIETTA 0 ', 161.0000,1,   2,   1,   1,0.97833, -75.4641,1.10000,0.90000,1.10000,0.90000
  2052,'PANHANDLE~13', 161.0000,1,   2,   1,   1,1.02538, -51.6876,1.10000,0.90000,1.10000,0.90000
  2053,'BOWIE 0     ', 161.0000,1,   2,   1,   1,0.98547, -82.2086,1.10000,0.90000,1.10000,0.90000
  2054,'WICHITA FA~1', 500.0000,1,   2,   1,   1,0.99188, -62.9539,1.10000,0.90000,1.10000,0.90000
  2055,'WICHITA FA~2', 161.0000,1,   2,   1,   1,0.99081, -63.8167,1.10000,0.90000,1.10000,0.90000
  2056,'WICHITA FA~3',  18.0000,2,   2,   1,   1,0.99188, -62.9539,1.10000,0.90000,1.10000,0.90000
  2057,'WICHITA FA~4',  18.0000,2,   2,   1,   1,0.99000, -58.9527,1.10000,0.90000,1.10000,0.90000
  2058,'WHITE DEER 0', 161.0000,1,   2,   1,   1,1.03678, -47.3248,1.10000,0.90000,1.10000,0.90000
  2059,'WHITE DEER 1',  13.8000,2,   2,   1,   1,1.02690, -44.0333,1.10000,0.90000,1.10000,0.90000
  2060,'ROXTON 0    ', 161.0000,1,   2,   1,   1,0.99926, -86.1068,1.10000,0.90000,1.10000,0.90000
  2061,'VERNON 1 0  ', 161.0000,1,   2,   1,   1,1.01638, -56.4942,1.10000,0.90000,1.10000,0.90000
  2062,'VERNON 1 1  ',  18.0000,2,   2,   1,   1,1.02000, -54.1971,1.10000,0.90000,1.10000,0.90000
  2063,'DENISON 2 0 ', 161.0000,1,   2,   1,   1,1.01668, -92.3453,1.10000,0.90000,1.10000,0.90000
  2064,'SUMNER 0    ', 161.0000,1,   2,   1,   1,1.00469, -84.4552,1.10000,0.90000,1.10000,0.90000
  2065,'GAINESVILL~1', 161.0000,1,   2,   1,   1,0.99449, -88.6007,1.10000,0.90000,1.10000,0.90000
  2066,'ASPERMONT 0 ', 161.0000,1,   2,   1,   1,0.99945, -44.4747,1.10000,0.90000,1.10000,0.90000
  2067,'WICHITA F~11', 161.0000,1,   2,   1,   1,0.98640, -63.8618,1.10000,0.90000,1.10000,0.90000
  2068,'WINDTHORST 0', 161.0000,1,   2,   1,   1,0.99448, -61.7014,1.10000,0.90000,1.10000,0.90000
  2069,'HOWE 0      ', 161.0000,1,   2,   1,   1,1.04459, -93.3423,1.10000,0.90000,1.10000,0.90000
  2070,'ARCHER 2 0  ', 161.0000,1,   2,   1,   1,0.99666, -61.2355,1.10000,0.90000,1.10000,0.90000
  2071,'ARCHER 2 1  ',  18.0000,2,   2,   1,   1,1.00000, -57.5465,1.10000,0.90000,1.10000,0.90000
  2072,'COLLINSVIL~1', 161.0000,1,   2,   1,   1,1.02994, -91.4077,1.10000,0.90000,1.10000,0.90000
  2073,'JAYTON 0    ', 161.0000,1,   2,   1,   1,1.00069, -41.5919,1.10000,0.90000,1.10000,0.90000
  2074,'JAYTON 1    ', 115.0000,1,   2,   1,   1,0.99216, -39.4803,1.10000,0.90000,1.10000,0.90000
  2075,'JAYTON 2    ', 115.0000,1,   2,   1,   1,0.99216, -39.4803,1.10000,0.90000,1.10000,0.90000
  2076,'JAYTON 3    ',  24.0000,2,   2,   1,   1,1.00603, -40.6583,1.10000,0.90000,1.10000,0.90000
  2077,'MUENSTER 1 0', 161.0000,1,   2,   1,   1,1.01286, -83.8687,1.10000,0.90000,1.10000,0.90000
  2078,'MUENSTER 1 1',  13.8000,2,   2,   1,   1,1.02000, -80.5376,1.10000,0.90000,1.10000,0.90000
  2079,'PADUCAH 0   ', 161.0000,1,   2,   1,   1,1.01469, -52.9115,1.10000,0.90000,1.10000,0.90000
  2080,'NOCONA 0    ', 161.0000,1,   2,   1,   1,0.98459, -79.4288,1.10000,0.90000,1.10000,0.90000
  2081,'DODD CITY 0 ', 161.0000,1,   2,   1,   1,1.00411, -89.1877,1.10000,0.90000,1.10000,0.90000
  2082,'WICHITA FA~5', 161.0000,1,   2,   1,   1,0.99452, -64.6570,1.10000,0.90000,1.10000,0.90000
  2083,'WICHITA FA~6',  20.0000,2,   2,   1,   1,1.00935, -63.0466,1.10000,0.90000,1.10000,0.90000
  2084,'WICHITA FA~7',  20.0000,2,   2,   1,   1,0.99452, -64.6570,1.10000,0.90000,1.10000,0.90000
  2085,'WICHITA FA~8',  20.0000,2,   2,   1,   1,0.99452, -64.6570,1.10000,0.90000,1.10000,0.90000
  2086,'MONTAGUE 0  ', 161.0000,1,   2,   1,   1,0.98259, -81.7876,1.10000,0.90000,1.10000,0.90000
  2087,'SPUR 0      ', 161.0000,1,   2,   1,   1,1.00474, -44.4689,1.10000,0.90000,1.10000,0.90000
  2088,'ARCHER 1 0  ', 161.0000,1,   2,   1,   1,0.99576, -61.3844,1.10000,0.90000,1.10000,0.90000
  2089,'ARCHER 1 1  ',  24.0000,2,   2,   1,   1,1.00000, -57.7711,1.10000,0.90000,1.10000,0.90000
  2090,'ANNONA 0    ', 161.0000,1,   2,   1,   1,1.00416, -85.2095,1.10000,0.90000,1.10000,0.90000
  2091,'SEYMOUR 0   ', 161.0000,1,   2,   1,   1,1.00401, -51.8526,1.10000,0.90000,1.10000,0.90000
  2092,'DENISON 1 0 ', 161.0000,1,   2,   1,   1,1.01304, -90.6612,1.10000,0.90000,1.10000,0.90000
  2093,'PANHANDLE~10', 161.0000,1,   2,   1,   1,1.03849, -50.5799,1.10000,0.90000,1.10000,0.90000
  2094,'PANHANDLE~11',  13.8000,2,   2,   1,   1,1.03849, -50.5799,1.10000,0.90000,1.10000,0.90000
  2095,'PANHANDLE~12',  13.8000,2,   2,   1,   1,1.03849, -50.5799,1.10000,0.90000,1.10000,0.90000
  2096,'RALLS 1 0   ', 500.0000,1,   2,   1,   1,1.03606, -46.7521,1.10000,0.90000,1.10000,0.90000
  2097,'RALLS 1 1   ', 230.0000,1,   2,   1,   1,1.03155, -45.9519,1.10000,0.90000,1.10000,0.90000
  2098,'RALLS 1 2   ', 161.0000,1,   2,   1,   1,1.02960, -48.9745,1.10000,0.90000,1.10000,0.90000
  2099,'RALLS 1 3   ',  18.0000,2,   2,   1,   1,1.03560, -46.6126,1.10000,0.90000,1.10000,0.90000
  2100,'RALLS 1 4   ',  18.0000,2,   2,   1,   1,1.02693, -44.1766,1.10000,0.90000,1.10000,0.90000
  2101,'SHERMAN 1 0 ', 500.0000,1,   2,   1,   1,1.01135, -86.7444,1.10000,0.90000,1.10000,0.90000
  2102,'SHERMAN 1 1 ', 161.0000,1,   2,   1,   1,1.01146, -88.1343,1.10000,0.90000,1.10000,0.90000
  2103,'SHERMAN 1 2 ',  20.0000,2,   2,   1,   1,1.01135, -86.7444,1.10000,0.90000,1.10000,0.90000
  2104,'SHERMAN 1 3 ',  20.0000,2,   2,   1,   1,1.01135, -86.7444,1.10000,0.90000,1.10000,0.90000
  2105,'SHERMAN 1 4 ',  20.0000,2,   2,   1,   1,1.01135, -86.7444,1.10000,0.90000,1.10000,0.90000
  2106,'WHITEWRIGH~1', 161.0000,1,   2,   1,   1,0.99225, -90.2837,1.10000,0.90000,1.10000,0.90000
  2107,'SHERMAN 2 0 ', 161.0000,1,   2,   1,   1,1.00577, -88.9861,1.10000,0.90000,1.10000,0.90000
  2108,'ROCHESTER 0 ', 161.0000,1,   2,   1,   1,0.97383, -63.5131,1.10000,0.90000,1.10000,0.90000
  2109,'BURKBURNET~1', 161.0000,1,   2,   1,   1,0.99584, -66.3126,1.10000,0.90000,1.10000,0.90000
  2110,'MUENSTER 2 0', 161.0000,1,   2,   1,   1,1.01493, -85.0362,1.10000,0.90000,1.10000,0.90000
  2111,'ARCHER CIT~1', 161.0000,1,   2,   1,   1,0.97879, -70.5861,1.10000,0.90000,1.10000,0.90000
  2112,'PETROLIA 0  ', 161.0000,1,   2,   1,   1,0.98098, -69.9192,1.10000,0.90000,1.10000,0.90000
  2113,'PARIS 1 0   ', 500.0000,1,   2,   1,   1,1.01495, -80.4588,1.10000,0.90000,1.10000,0.90000
  2114,'PARIS 1 1   ', 161.0000,1,   2,   1,   1,1.01268, -81.7344,1.10000,0.90000,1.10000,0.90000
  2115,'PARIS 1 2   ',  13.8000,2,   2,   1,   1,1.00606, -76.4634,1.10000,0.90000,1.10000,0.90000
  2116,'PARIS 1 3   ',  13.8000,2,   2,   1,   1,1.01073, -78.3885,1.10000,0.90000,1.10000,0.90000
  2117,'PARIS 1 4   ',  13.8000,2,   2,   1,   1,1.00332, -75.8238,1.10000,0.90000,1.10000,0.90000
  2118,'PARIS 1 5   ',  13.8000,2,   2,   1,   1,1.00196, -75.3160,1.10000,0.90000,1.10000,0.90000
  2119,'PARIS 1 6   ',  13.8000,2,   2,   1,   1,1.00964, -77.9358,1.10000,0.90000,1.10000,0.90000
  2120,'PARIS 1 7   ',  13.8000,2,   2,   1,   1,1.01000, -75.5609,1.10000,0.90000,1.10000,0.90000
  2121,'BAGWELL 0   ', 161.0000,1,   2,   1,   1,1.00762, -84.1305,1.10000,0.90000,1.10000,0.90000
  2122,'TELEPHONE 0 ', 161.0000,1,   2,   1,   1,0.99833, -85.3152,1.10000,0.90000,1.10000,0.90000
  2123,'PANHANDLE ~1', 161.0000,2,   2,   1,   1,1.03705, -47.0917,1.10000,0.90000,1.10000,0.90000
  2124,'VAN ALSTYN~1', 161.0000,1,   2,   1,   1,0.99173, -91.3584,1.10000,0.90000,1.10000,0.90000
  2125,'TIOGA 0     ', 161.0000,1,   2,   1,   1,0.99244, -91.2200,1.10000,0.90000,1.10000,0.90000
  2126,'VALLEY VIE~1', 161.0000,1,   2,   1,   1,0.99126, -90.2624,1.10000,0.90000,1.10000,0.90000
  2127,'MIAMI 0     ', 500.0000,2,   2,   1,   1,1.04680, -54.0572,1.10000,0.90000,1.10000,0.90000
  2128,'MIAMI 1     ', 161.0000,1,   2,   1,   1,1.03726, -52.5506,1.10000,0.90000,1.10000,0.90000
  2129,'TRENTON 0   ', 161.0000,1,   2,   1,   1,0.99498, -90.1834,1.10000,0.90000,1.10000,0.90000
  2130,'HASKELL 0   ', 161.0000,1,   2,   1,   1,0.97431, -61.6790,1.10000,0.90000,1.10000,0.90000
  2131,'HASKELL 1   ', 115.0000,1,   2,   1,   1,0.96506, -58.2786,1.10000,0.90000,1.10000,0.90000
  2132,'HASKELL 2   ', 115.0000,1,   2,   1,   1,0.97986, -60.1269,1.10000,0.90000,1.10000,0.90000
  2133,'SAINT JO 0  ', 161.0000,1,   2,   1,   1,1.00673, -83.0532,1.10000,0.90000,1.10000,0.90000
  3001,'KERRVILLE 0 ', 230.0000,1,   3,   1,   1,1.01946, -61.9335,1.10000,0.90000,1.10000,0.90000
  3002,'KERRVILLE 1 ', 115.0000,1,   3,   1,   1,1.00741, -64.2374,1.10000,0.90000,1.10000,0.90000
  3003,'SWEETWATER~4', 115.0000,1,   3,   1,   1,1.00526, -31.5769,1.10000,0.90000,1.10000,0.90000
  3004,'SWEETWATER~5',  18.0000,2,   3,   1,   1,1.00031, -29.9476,1.10000,0.90000,1.10000,0.90000
  3005,'LEAKEY 0    ', 115.0000,1,   3,   1,   1,1.02842, -63.3777,1.10000,0.90000,1.10000,0.90000
  3006,'HAMLIN 0    ', 115.0000,1,   3,   1,   1,0.98032, -42.2956,1.10000,0.90000,1.10000,0.90000
  3007,'MERKEL 3 0  ', 115.0000,1,   3,   1,   1,1.00177, -39.1569,1.10000,0.90000,1.10000,0.90000
  3008,'COLEMAN 0   ', 115.0000,1,   3,   1,   1,0.97915, -49.9842,1.10000,0.90000,1.10000,0.90000
  3009,'SONORA 0    ', 115.0000,1,   3,   1,   1,0.98687, -36.4057,1.10000,0.90000,1.10000,0.90000
  3010,'CAMP WOOD 0 ', 115.0000,1,   3,   1,   1,1.00536, -62.2214,1.10000,0.90000,1.10000,0.90000
  3011,'LLANO 0     ', 115.0000,1,   3,   1,   1,1.02634, -69.0579,1.10000,0.90000,1.10000,0.90000
  3012,'WILLOW CIT~1', 115.0000,1,   3,   1,   1,1.02775, -68.3438,1.10000,0.90000,1.10000,0.90000
  3013,'ABILENE 4 0 ', 115.0000,1,   3,   1,   1,1.01887, -43.1330,1.10000,0.90000,1.10000,0.90000
  3014,'KINGSLAND 0 ', 115.0000,1,   3,   1,   1,1.01875, -65.5228,1.10000,0.90000,1.10000,0.90000
  3015,'ROSCOE 6 0  ', 115.0000,1,   3,   1,   1,1.00421, -31.1604,1.10000,0.90000,1.10000,0.90000
  3016,'BLACKWELL 0 ', 115.0000,1,   3,   1,   1,1.00007, -35.5028,1.10000,0.90000,1.10000,0.90000
  3017,'BLACKWELL 1 ',  18.0000,2,   3,   1,   1,1.01000, -30.2655,1.10000,0.90000,1.10000,0.90000
  3018,'CHRISTOVAL 0', 230.0000,1,   3,   1,   1,1.00635, -35.4397,1.10000,0.90000,1.10000,0.90000
  3019,'CHRISTOVAL 1', 115.0000,1,   3,   1,   1,1.00312, -37.0004,1.10000,0.90000,1.10000,0.90000
  3020,'CHRISTOVAL 2',  13.8000,2,   3,   1,   1,1.02620, -31.2288,1.10000,0.90000,1.10000,0.90000
  3021,'LUEDERS 0   ', 115.0000,1,   3,   1,   1,0.97050, -53.2179,1.10000,0.90000,1.10000,0.90000
  3022,'COLORADO C~1', 115.0000,1,   3,   1,   1,0.98702, -33.1899,1.10000,0.90000,1.10000,0.90000
  3023,'STAMFORD 0  ', 115.0000,1,   3,   1,   1,0.99980, -42.7485,1.10000,0.90000,1.10000,0.90000
  3024,'ELDORADO 0  ', 115.0000,1,   3,   1,   1,0.99643, -37.1219,1.10000,0.90000,1.10000,0.90000
  3025,'SAN SABA 0  ', 115.0000,1,   3,   1,   1,0.98256, -58.4417,1.10000,0.90000,1.10000,0.90000
  3026,'ABILENE 2 0 ', 230.0000,1,   3,   1,   1,0.99613, -54.4412,1.10000,0.90000,1.10000,0.90000
  3027,'ABILENE 2 1 ', 115.0000,1,   3,   1,   1,0.99209, -54.3231,1.10000,0.90000,1.10000,0.90000
  3028,'ABILENE 2 2 ',  18.0000,2,   3,   1,   1,1.00932, -51.6926,1.10000,0.90000,1.10000,0.90000
  3029,'LOMETA 0    ', 115.0000,1,   3,   1,   1,1.02211, -71.4455,1.10000,0.90000,1.10000,0.90000
  3030,'SAN ANGELO~1', 115.0000,1,   3,   1,   1,0.98870, -49.0699,1.10000,0.90000,1.10000,0.90000
  3031,'TUSCOLA 0   ', 115.0000,1,   3,   1,   1,0.98421, -40.0923,1.10000,0.90000,1.10000,0.90000
  3032,'ABILENE 7 0 ', 115.0000,1,   3,   1,   1,0.98865, -41.6683,1.10000,0.90000,1.10000,0.90000
  3033,'SNYDER 1 0  ', 115.0000,1,   3,   1,   1,1.00129, -30.6697,1.10000,0.90000,1.10000,0.90000
  3034,'SNYDER 1 1  ',  22.0000,2,   3,   1,   1,1.03000, -21.3473,1.10000,0.90000,1.10000,0.90000
  3035,'CHEROKEE 0  ', 115.0000,1,   3,   1,   1,0.98316, -57.0110,1.10000,0.90000,1.10000,0.90000
  3036,'RICHLAND S~1', 115.0000,1,   3,   1,   1,0.98088, -54.3204,1.10000,0.90000,1.10000,0.90000
  3037,'ROSCOE 2 0  ', 230.0000,1,   3,   1,   1,0.99747, -41.4770,1.10000,0.90000,1.10000,0.90000
  3038,'ROSCOE 2 1  ', 115.0000,1,   3,   1,   1,0.98910, -35.2301,1.10000,0.90000,1.10000,0.90000
  3039,'ROSCOE 2 2  ',  13.8000,2,   3,   1,   1,1.01069, -38.7460,1.10000,0.90000,1.10000,0.90000
  3040,'BALLINGER 0 ', 115.0000,1,   3,   1,   1,0.97972, -45.2751,1.10000,0.90000,1.10000,0.90000
  3041,'SILVER 0    ', 230.0000,1,   3,   1,   1,0.96394, -42.3670,1.10000,0.90000,1.10000,0.90000
  3042,'SILVER 1    ', 115.0000,1,   3,   1,   1,0.96481, -25.8610,1.10000,0.90000,1.10000,0.90000
  3043,'SILVER 2    ',  13.8000,2,   3,   1,   1,0.96394, -42.3670,1.10000,0.90000,1.10000,0.90000
  3044,'SILVER 3    ',  13.8000,2,   3,   1,   1,0.96394, -42.3670,1.10000,0.90000,1.10000,0.90000
  3045,'SILVER 4    ',  13.8000,2,   3,   1,   1,0.96394, -42.3670,1.10000,0.90000,1.10000,0.90000
  3046,'ROSCOE 5 0  ', 230.0000,1,   3,   1,   1,0.96534, -51.3253,1.10000,0.90000,1.10000,0.90000
  3047,'ROSCOE 5 1  ', 115.0000,1,   3,   1,   1,1.02830, -34.1398,1.10000,0.90000,1.10000,0.90000
  3048,'ROSCOE 5 2  ', 500.0000,2,   3,   1,   1,0.98295, -60.3995,1.10000,0.90000,1.10000,0.90000
  3049,'ANSON 0     ', 115.0000,1,   3,   1,   1,0.97578, -46.2330,1.10000,0.90000,1.10000,0.90000
  3050,'DEL RIO 0   ', 230.0000,1,   3,   1,   1,1.00566, -35.6431,1.10000,0.90000,1.10000,0.90000
  3051,'DEL RIO 1   ', 115.0000,1,   3,   1,   1,1.01294, -37.3290,1.10000,0.90000,1.10000,0.90000
  3052,'HUNT 0      ', 115.0000,1,   3,   1,   1,1.01182, -64.1005,1.10000,0.90000,1.10000,0.90000
  3053,'WINGATE 0   ', 230.0000,1,   3,   1,   1,0.99194, -41.3731,1.10000,0.90000,1.10000,0.90000
  3054,'WINGATE 1   ', 115.0000,1,   3,   1,   1,0.98523, -40.5688,1.10000,0.90000,1.10000,0.90000
  3055,'WINGATE 2   ',  13.8000,2,   3,   1,   1,1.00695, -38.2861,1.10000,0.90000,1.10000,0.90000
  3056,'WINGATE 3   ',  13.8000,2,   3,   1,   1,1.01722, -35.5877,1.10000,0.90000,1.10000,0.90000
  3057,'WINGATE 4   ',  13.8000,2,   3,   1,   1,1.01766, -35.7748,1.10000,0.90000,1.10000,0.90000
  3058,'STERLING C~1', 230.0000,1,   3,   1,   1,0.98486, -33.6641,1.10000,0.90000,1.10000,0.90000
  3059,'STERLING C~2', 115.0000,1,   3,   1,   1,0.96956, -20.8205,1.10000,0.90000,1.10000,0.90000
  3060,'STERLING C~3',  18.0000,2,   3,   1,   1,1.01711, -25.5792,1.10000,0.90000,1.10000,0.90000
  3061,'STERLING C~4',  18.0000,2,   3,   1,   1,1.00986, -27.8562,1.10000,0.90000,1.10000,0.90000
  3062,'STERLING C~5',  18.0000,2,   3,   1,   1,0.99950, -30.7127,1.10000,0.90000,1.10000,0.90000
  3063,'STERLING C~6',  18.0000,2,   3,   1,   1,1.00475, -29.4854,1.10000,0.90000,1.10000,0.90000
  3064,'ROSCOE 4 0  ', 115.0000,1,   3,   1,   1,1.00870, -30.6949,1.10000,0.90000,1.10000,0.90000
  3065,'ROSCOE 4 1  ',  18.0000,2,   3,   1,   1,1.00000, -24.5520,1.10000,0.90000,1.10000,0.90000
  3066,'BRADY 0     ', 115.0000,1,   3,   1,   1,0.98603, -54.4123,1.10000,0.90000,1.10000,0.90000
  3067,'TRENT 1 0   ', 115.0000,1,   3,   1,   1,1.01569, -33.7653,1.10000,0.90000,1.10000,0.90000
  3068,'TRENT 1 1   ',  20.0000,2,   3,   1,   1,1.03058, -30.8140,1.10000,0.90000,1.10000,0.90000
  3069,'OVALO 0     ', 115.0000,1,   3,   1,   1,0.98654, -43.5206,1.10000,0.90000,1.10000,0.90000
  3070,'NOLAN 0     ', 115.0000,1,   3,   1,   1,1.00907, -35.0874,1.10000,0.90000,1.10000,0.90000
  3071,'NOLAN 1     ',  24.0000,2,   3,   1,   1,1.00000, -30.4546,1.10000,0.90000,1.10000,0.90000
  3072,'MILES 0     ', 115.0000,1,   3,   1,   1,0.98699, -48.4174,1.10000,0.90000,1.10000,0.90000
  3073,'BRACKETTVI~3', 115.0000,1,   3,   1,   1,1.00522, -59.0647,1.10000,0.90000,1.10000,0.90000
  3074,'BRACKETTVI~4',  13.8000,2,   3,   1,   1,1.00000, -56.5467,1.10000,0.90000,1.10000,0.90000
  3075,'MASON 0     ', 115.0000,1,   3,   1,   1,0.97369, -50.4312,1.10000,0.90000,1.10000,0.90000
  3076,'BRACKETTVI~5', 115.0000,1,   3,   1,   1,1.00301, -60.6354,1.10000,0.90000,1.10000,0.90000